geometry optimzed in LAMMPS
_audit_creation_date              2020-11-30 
_audit_creation_method            'lammps2cif' 
_symmetry_space_group_name_H-M    'P1' 
_symmetry_Int_Tables_number       1 
_symmetry_cell_setting            triclinic 
loop_ 
_symmetry_equiv_pos_as_xyz 
  x,y,z 
_cell_length_a                    37.43758816974016 
_cell_length_b                    38.02577963280613 
_cell_length_c                    33.00370474393721 
_cell_angle_alpha                 79.32520436190254 
_cell_angle_beta                  91.38738326554815 
_cell_angle_gamma                 120.99213898595053 
loop_ 
_atom_site_label 
_atom_site_type_symbol 
_atom_site_fract_x 
_atom_site_fract_y 
_atom_site_fract_z 
_atom_site_charge 
C1          C  0.50679004  0.20575288  0.26082340    -0.03430
C2          C  0.15719549  0.19927503  0.26518682    -0.03430
C3          C  0.15909459  0.05733494  0.23605047    -0.03430
C4          C  0.01017573  0.41721728  0.20313507    -0.03430
C5          C  0.34426005  0.39497177  0.22107904    -0.03430
C6          C  0.35502951  0.04861597  0.25080309    -0.03430
O7          O  0.30767628  0.05143114  0.44451396    -0.81080
O8          O  0.28027381  0.08467128  0.07714707    -0.81100
O9          O  0.32826168  0.16361528  0.44938257    -0.81110
O10         O  0.24932195  0.46443257  0.01429870    -0.81050
O11         O  0.33401865  0.13631304  0.00945390    -0.81180
O12         O  0.25115781  0.46917325  0.44592742    -0.81100
O13         O  0.28278509  0.03033531  0.06470825    -0.81080
O14         O  0.29997640  0.09983853  0.40549420    -0.81120
C15         C  0.31495324  0.07617303  0.41002155     1.08610
C16         C  0.28889063  0.05620209  0.08786240     1.08490
C17         C  0.35107635  0.16736459  0.47914157     1.08630
C18         C  0.25371585  0.45136169  0.48171603     1.08510
O19         O  0.18199923  0.47201052  0.46230045    -0.81080
O20         O  0.27692658  0.15764646  0.03001751    -0.81160
O21         O  0.21539723  0.07600072  0.42078121    -0.81090
O22         O  0.20377538  0.01937171  0.07323394    -0.81070
O23         O  0.20949022  0.07787456  0.04061026    -0.81130
O24         O  0.23291319  0.03172572  0.40549525    -0.81090
O25         O  0.16739398  0.45952318  0.02718415    -0.81050
O26         O  0.24532245  0.14367329  0.47198843    -0.81120
Co27       Co  0.24695710  0.01383509  0.46003024     1.51530
Co28       Co  0.26951512  0.10474804  0.02092108     1.51690
Co29       Co  0.26964461  0.11387183  0.44263665     1.51570
Co30       Co  0.22864234  0.00025017  0.03861732     1.51470
O31         O  0.25072064  0.05693796  0.49048990    -1.43010
C32         C  0.15461884  0.44974500  0.49278165     1.08540
C33         C  0.26081684  0.16842443  0.49901514     1.08630
C34         C  0.21462320  0.05217757  0.39754354     1.08560
C35         C  0.19621481  0.04806116  0.07192066     1.08540
O36         O  0.47960949  0.28449670  0.40240062    -0.81080
O37         O  0.04910601  0.29826479  0.05987324    -0.81100
O38         O  0.11090516  0.33808804  0.43939668    -0.81110
O39         O  0.41906166  0.21353382  0.00744296    -0.81050
O40         O  0.10772837  0.32541289  0.00692381    -0.81180
O41         O  0.40346530  0.24295980  0.45239183    -0.81100
O42         O  0.48847686  0.24586451  0.05638872    -0.81080
O43         O  0.02832921  0.27841738  0.43680014    -0.81120
C44         C  0.00629775  0.27347854  0.40610514     1.08610
C45         C  0.51776047  0.26624020  0.07823301     1.08490
C46         C  0.12612226  0.32949218  0.47264734     1.08630
C47         C  0.39402410  0.20966115  0.47929801     1.08510
O48         O  0.41965464  0.32327416  0.46249421    -0.81080
O49         O  0.08730907  0.38072479  0.01946384    -0.81160
O50         O  0.05029245  0.35821443  0.39414485    -0.81090
O51         O  0.47652989  0.31255677  0.06105151    -0.81070
O52         O  0.04668968  0.35270251  0.04429701    -0.81130
O53         O  0.49650063  0.36363916  0.40946271    -0.81090
O54         O  0.40401491  0.27817537  0.02147991    -0.81050
O55         O  0.09570670  0.39810935  0.45528728    -0.81120
Co56       Co  0.45393502  0.30487106  0.43560087     1.51530
Co57       Co  0.05283810  0.32296003  0.00195356     1.51690
Co58       Co  0.05575800  0.33399047  0.45211753     1.51570
Co59       Co  0.45158578  0.26661193  0.03180451     1.51470
O60         O  0.99527073  0.31408467  0.48302824    -1.43010
C61         C  0.39505895  0.30115209  0.49522914     1.08540
C62         C  0.11027720  0.40937423  0.48898395     1.08630
C63         C  0.02426597  0.36961420  0.38298033     1.08560
C64         C  0.01264639  0.34200940  0.06576656     1.08540
O65         O  0.28493902  0.30259466  0.41178767    -0.81080
O66         O  0.26396221  0.34560435  0.06671765    -0.81100
O67         O  0.27952462  0.40841376  0.46199672    -0.81110
O68         O  0.33804657  0.29079900  0.03989271    -0.81050
O69         O  0.22964920  0.37970267  0.01269466    -0.81180
O70         O  0.33037798  0.30110280  0.47353346    -0.81100
O71         O  0.32147995  0.35508095  0.03615006    -0.81080
O72         O  0.30794525  0.36769137  0.41540543    -0.81120
C73         C  0.30638749  0.34064057  0.39651578     1.08610
C74         C  0.30321818  0.36190541  0.06327694     1.08490
C75         C  0.25628211  0.41203170  0.48670588     1.08630
C76         C  0.35326559  0.29849713  0.50318303     1.08510
O77         O  0.26491436  0.22860300  0.45467423    -0.81080
O78         O  0.16651835  0.29850316  0.00114916    -0.81160
O79         O  0.22215105  0.31140751  0.40525643    -0.81090
O80         O  0.26430338  0.27609228  0.07987977    -0.81070
O81         O  0.20290512  0.26290215  0.06091808    -0.81130
O82         O  0.20598851  0.25234518  0.44850060    -0.81090
O83         O  0.26429048  0.23132338  0.01999191    -0.81050
O84         O  0.19599445  0.35081248  0.44759039    -0.81120
Co85       Co  0.26346994  0.27527827  0.46753179     1.51530
Co86       Co  0.21751244  0.31997064  0.03259098     1.51690
Co87       Co  0.25288587  0.35699876  0.43663828     1.51570
Co88       Co  0.29205854  0.29797972  0.02243588     1.51470
O89         O  0.25422734  0.31710546  0.48924165    -1.43010
C90         C  0.26274468  0.21078234  0.49136240     1.08540
C91         C  0.16408180  0.32488501  0.47280768     1.08630
C92         C  0.20302911  0.27164534  0.41361670     1.08560
C93         C  0.22595493  0.26131516  0.08935968     1.08540
C94         C  0.35977763  0.08415159  0.17397237    -0.10100
C95         C  0.33380075  0.05599542  0.21045890     0.06100
C96         C  0.29133326  0.02817097  0.20410904    -0.03870
C97         C  0.27835987  0.02639743  0.16370531    -0.08320
C98         C  0.30537607  0.05373096  0.12871260     0.05210
C99         C  0.34591639  0.08386903  0.13452917    -0.03340
Br100      Br  0.38472207  0.12450656  0.08905142    -0.03040
H101        H  0.39256674  0.10620367  0.17458570     0.09120
H102        H  0.24664626  0.00395083  0.15966753     0.07140
Br103      Br  0.24837224  0.99301662  0.24831790    -0.03460
C104        C  0.32487622  0.07516449  0.29690129    -0.10100
C105        C  0.33388063  0.04388160  0.29468378     0.06100
C106        C  0.33756812  0.02303670  0.33470551    -0.03870
C107        C  0.33174163  0.03400578  0.37168492    -0.08320
C108        C  0.32760690  0.06863115  0.37125984     0.05210
C109        C  0.32789489  0.09131937  0.33235431    -0.03340
Br110      Br  0.33844591  0.14793725  0.32402925    -0.03040
H111        H  0.32325946  0.09279405  0.26901060     0.09120
H112        H  0.33159540  0.01585809  0.40121284     0.07140
Br113      Br  0.34877419  0.97832262  0.34646267    -0.03460
C114        C  0.32284919  0.34765373  0.16950468    -0.10100
C115        C  0.31494306  0.37461788  0.18663256     0.06100
C116        C  0.30155547  0.39776163  0.15759578    -0.03870
C117        C  0.30726741  0.40125541  0.11493093    -0.08320
C118        C  0.32321181  0.37989481  0.09902622     0.05210
C119        C  0.33466264  0.35613060  0.12724825    -0.03340
Br120      Br  0.37144188  0.33970592  0.10972155    -0.03040
H121        H  0.33086450  0.32764777  0.18922464     0.09120
H122        H  0.29416663  0.41645243  0.09406171     0.07140
Br123      Br  0.26564719  0.41677339  0.17129814    -0.03460
C124        C  0.35531757  0.38913960  0.33711361    -0.10100
C125        C  0.32115254  0.35061515  0.35333560     0.06100
C126        C  0.29972055  0.32163488  0.32721884    -0.03870
C127        C  0.30322503  0.33606187  0.28469068    -0.08320
C128        C  0.33682662  0.37576497  0.26754791     0.05210
C129        C  0.36604266  0.39985286  0.29515242    -0.03340
Br130      Br  0.42111393  0.44789205  0.27922198    -0.03040
H131        H  0.37478141  0.40986823  0.35729515     0.09120
H132        H  0.28364978  0.31512917  0.26486757     0.07140
Br133      Br  0.27969991  0.26331730  0.34554507    -0.03460
C134        C  0.37762445  0.97462211  0.20467628    -0.10100
C135        C  0.34468091  0.43552730  0.22349799     0.06100
C136        C  0.31417569  0.43498662  0.24959869    -0.03870
C137        C  0.32139494  0.97135571  0.26007063    -0.08320
C138        C  0.35644471  0.01039161  0.24419240     0.05210
C139        C  0.38281893  0.01120053  0.21298859    -0.03340
Br140      Br  0.92670512  0.05784353  0.17700438    -0.03040
H141        H  0.40054725  0.97807101  0.18331236     0.09120
H142        H  0.29846112  0.96852257  0.28151485     0.07140
Br143      Br  0.26110401  0.38711377  0.27414118    -0.03460
C144        C  0.48796366  0.35560148  0.16935923    -0.10100
C145        C  0.01605062  0.39837171  0.16764818     0.06100
C146        C  0.04384218  0.42227426  0.13011425    -0.03870
C147        C  0.04365155  0.40228828  0.09896574    -0.08320
C148        C  0.01422534  0.36054966  0.10099502     0.05210
C149        C  0.48572633  0.33691312  0.13655348    -0.03340
Br150      Br  0.44163665  0.27896715  0.14374465    -0.03040
H151        H  0.46670829  0.33612931  0.19639354     0.09120
H152        H  0.06476782  0.42026914  0.07123767     0.07140
Br153      Br  0.08014132  0.48240991  0.11172986    -0.03460
C154        C  0.00310019  0.41779973  0.28028340    -0.10100
C155        C  0.01226096  0.39973872  0.25082320     0.06100
C156        C  0.02663677  0.37230756  0.26691113    -0.03870
C157        C  0.03124961  0.36451203  0.30946538    -0.08320
C158        C  0.02156225  0.38228919  0.33790087     0.05210
C159        C  0.00663529  0.40881687  0.32273833    -0.03340
Br160      Br  0.99198498  0.43502731  0.35817546    -0.03040
H161        H  0.99341449  0.43999037  0.26971684     0.09120
H162        H  0.04247674  0.34394551  0.32053575     0.07140
Br163      Br  0.04568872  0.34756395  0.23453655    -0.03460
C164        C  0.43490862  0.37498202  0.22594006    -0.10100
C165        C  0.96630695  0.41065503  0.19952538     0.06100
C166        C  0.45187936  0.42936815  0.16731248    -0.03870
C167        C  0.41200844  0.42334314  0.17331624    -0.08320
C168        C  0.38612049  0.39769268  0.20985336     0.05210
C169        C  0.39541153  0.36679790  0.23002185    -0.03340
Br170      Br  0.35896469  0.30920303  0.25859529    -0.03040
H171        H  0.44066458  0.35186503  0.24397451     0.09120
H172        H  0.40073666  0.43724636  0.14874338     0.07140
Br173      Br  0.98150432  0.46088695  0.11454795    -0.03460
C174        C  0.19115281  0.03712820  0.18590586    -0.10100
C175        C  0.18484593  0.06876655  0.19351109     0.06100
C176        C  0.18574609  0.09662220  0.15707053    -0.03870
C177        C  0.18596248  0.08797019  0.11756217    -0.08320
C178        C  0.18374534  0.05137020  0.11259306     0.05210
C179        C  0.18276314  0.02393969  0.14843264    -0.03340
Br180      Br  0.16481542  0.46587928  0.14998921    -0.03040
H181        H  0.19425386  0.51730240  0.21139554     0.09120
H182        H  0.19044505  0.11121201  0.09038267     0.07140
Br183      Br  0.20514193  0.15419249  0.15330668    -0.03460
C184        C  0.14593317  0.02041442  0.31140331    -0.10100
C185        C  0.17520449  0.04389627  0.27586173     0.06100
C186        C  0.21774304  0.06714069  0.28297076    -0.03870
C187        C  0.22838138  0.07171237  0.32304888    -0.08320
C188        C  0.19877131  0.05218139  0.35700882     0.05210
C189        C  0.15724338  0.02488710  0.35136663    -0.03340
Br190      Br  0.11507430  0.99428455  0.39689732    -0.03040
H191        H  0.11335512  0.99937782  0.30820319     0.09120
H192        H  0.26023255  0.09103187  0.32814474     0.07140
Br193      Br  0.26248469  0.09706159  0.23952419    -0.03460
C194        C  0.08888873  0.03127614  0.20742439    -0.10100
C195        C  0.11726242  0.02194827  0.22868151     0.06100
C196        C  0.11109367  0.48167725  0.23089006    -0.03870
C197        C  0.08387723  0.45829192  0.20583089    -0.08320
C198        C  0.04771115  0.46047590  0.19926302     0.05210
C199        C  0.05049695  0.99893784  0.19980398    -0.03340
Br200      Br  0.00687475  0.01139117  0.19674875    -0.03040
H201        H  0.09409253  0.06244818  0.20179745     0.09120
H202        H  0.08464301  0.43112507  0.20207542     0.07140
Br203      Br  0.13614964  0.45357568  0.26438667    -0.03460
C204        C  0.21781219  0.25016961  0.20731235    -0.10100
C205        C  0.17463899  0.22134745  0.21809739     0.06100
C206        C  0.15169601  0.20550691  0.18337877    -0.03870
C207        C  0.16707924  0.22757590  0.14318102    -0.08320
C208        C  0.20990735  0.24920522  0.13367315     0.05210
C209        C  0.23543980  0.25645646  0.16722642    -0.03340
Br210      Br  0.28452626  0.25272361  0.16467320    -0.03040
H211        H  0.23841017  0.26149379  0.23120150     0.09120
H212        H  0.14661696  0.21806151  0.11847219     0.07140
Br213      Br  0.11722596  0.14750875  0.18040842    -0.03460
C214        C  0.18009565  0.19949110  0.33902989    -0.10100
C215        C  0.17950863  0.22336324  0.30029555     0.06100
C216        C  0.18305456  0.26205891  0.30155943    -0.03870
C217        C  0.18764920  0.27560990  0.33923147    -0.08320
C218        C  0.18727730  0.25100903  0.37734017     0.05210
C219        C  0.18131532  0.21154361  0.37674276    -0.03340
Br220      Br  0.17314486  0.17115025  0.42578077    -0.03040
H221        H  0.17537467  0.16865560  0.34157479     0.09120
H222        H  0.19119270  0.30582480  0.33861283     0.07140
Br223      Br  0.17482174  0.29453025  0.25445138    -0.03460
C224        C  0.12461405  0.12072415  0.28487819    -0.10100
C225        C  0.15977343  0.16035897  0.27139709     0.06100
C226        C  0.19687640  0.16239101  0.26111775    -0.03870
C227        C  0.19387420  0.13003655  0.24621340    -0.08320
C228        C  0.15576306  0.09245352  0.24776146     0.05210
C229        C  0.12153237  0.08641237  0.27317441    -0.03340
Br230      Br  0.06882918  0.03591773  0.29455633    -0.03040
H231        H  0.09879301  0.11653542  0.30338554     0.09120
H232        H  0.22229840  0.13496558  0.23335248     0.07140
Br233      Br  0.25184040  0.20297198  0.27243041    -0.03250
C234        C  0.48558452  0.21546958  0.14291102    -0.10100
C235        C  0.51534058  0.25557695  0.12442951     0.06100
C236        C  0.04318730  0.28258605  0.15060739    -0.03870
C237        C  0.03847359  0.26830127  0.19434275    -0.08320
C238        C  0.00963685  0.22630445  0.21271807     0.05210
C239        C  0.48953210  0.20015972  0.18281972    -0.03340
Br240      Br  0.48999828  0.15083081  0.18231479    -0.03040
H241        H  0.46624673  0.19350222  0.12365229     0.09120
H242        H  0.06035828  0.28880912  0.21304947     0.07140
Br243      Br  0.09019669  0.33768066  0.12978026    -0.03460
C244        C  0.47246911  0.22312302  0.36332926    -0.10100
C245        C  0.00986155  0.25572573  0.37174651     0.06100
C246        C  0.04422393  0.27575073  0.34171905    -0.03870
C247        C  0.03953646  0.26320178  0.30336976    -0.08320
C248        C  0.00306590  0.22658795  0.29619172     0.05210
C249        C  0.46971910  0.20539543  0.32965737    -0.03340
Br250      Br  0.42715420  0.14681513  0.34742071    -0.03040
H251        H  0.44592295  0.20836687  0.38632561     0.09120
H252        H  0.06679347  0.27886616  0.28149272     0.07140
Br253      Br  0.09845866  0.31929248  0.35131769    -0.03460
C254        C  0.06656955  0.20080598  0.23375060    -0.10100
C255        C  0.04484363  0.20060185  0.26817908     0.06100
C256        C  0.05730985  0.18964250  0.30809837    -0.03870
C257        C  0.09274868  0.18634236  0.30914319    -0.08320
C258        C  0.11124831  0.18731516  0.27190463     0.05210
C259        C  0.08482327  0.17741833  0.24056450    -0.03340
Br260      Br  0.04355371  0.11825092  0.24662014    -0.03040
H261        H  0.06400940  0.21136054  0.20190359     0.09120
H262        H  0.10501842  0.18293491  0.33850571     0.07140
Br263      Br  0.02977654  0.17474339  0.36208392    -0.03460
C264        C  0.46530307  0.12555445  0.27901646    -0.10100
C265        C  0.46682279  0.16361031  0.26559090     0.06100
C266        C  0.43033888  0.16243793  0.25216778    -0.03870
C267        C  0.39912976  0.12656693  0.24200693    -0.08320
C268        C  0.39802928  0.08802120  0.25150703     0.05210
C269        C  0.43165141  0.08810653  0.27236049    -0.03340
Br270      Br  0.43838968  0.04148522  0.29062661    -0.03040
H271        H  0.49008196  0.12444044  0.29507051     0.09120
H272        H  0.37473209  0.12957074  0.22690900     0.07140
Br273      Br  0.42278665  0.20991556  0.24232116    -0.03460
C274        C  0.50678944  0.20575269  0.76082363    -0.03430
C275        C  0.15719501  0.19927507  0.76518710    -0.03430
C276        C  0.15909483  0.05733561  0.73604993    -0.03430
C277        C  0.01017581  0.41721750  0.70313483    -0.03430
C278        C  0.34425988  0.39497163  0.72107886    -0.03430
C279        C  0.35502917  0.04861536  0.75080349    -0.03430
O280        O  0.30767592  0.05143124  0.94451386    -0.81080
O281        O  0.28027391  0.08467078  0.57714723    -0.81100
O282        O  0.32826176  0.16361566  0.94938231    -0.81110
O283        O  0.24932213  0.46443238  0.51429881    -0.81050
O284        O  0.33401878  0.13631258  0.50945403    -0.81180
O285        O  0.25115819  0.46917368  0.94592728    -0.81100
O286        O  0.28278491  0.03033465  0.56470842    -0.81080
O287        O  0.29997633  0.09983878  0.90549401    -0.81120
C288        C  0.31495295  0.07617308  0.91002142     1.08610
C289        C  0.28889064  0.05620151  0.58786255     1.08490
C290        C  0.35107632  0.16736502  0.97914141     1.08630
C291        C  0.25371595  0.45136201  0.98171593     1.08510
O292        O  0.18199950  0.47201065  0.96230033    -0.81080
O293        O  0.27692669  0.15764607  0.53001757    -0.81160
O294        O  0.21539723  0.07600128  0.92078098    -0.81090
O295        O  0.20377539  0.01937146  0.57323411    -0.81070
O296        O  0.20949036  0.07787425  0.54061014    -0.81130
O297        O  0.23291291  0.03172608  0.90549503    -0.81090
O298        O  0.16739406  0.45952270  0.52718437    -0.81050
O299        O  0.24532259  0.14367382  0.97198821    -0.81120
Co300      Co  0.24695674  0.01383538  0.96003007     1.51530
Co301      Co  0.26951527  0.10474764  0.52092119     1.51690
Co302      Co  0.26964466  0.11387225  0.94263645     1.51570
Co303      Co  0.22864212  0.00024977  0.53861746     1.51470
O304        O  0.25072055  0.05693836  0.99048976    -1.43010
C305        C  0.15461894  0.44974533  0.99278143     1.08540
C306        C  0.26081692  0.16842491  0.99901498     1.08630
C307        C  0.21462307  0.05217809  0.89754330     1.08560
C308        C  0.19621490  0.04806098  0.57192063     1.08540
O309        O  0.47960935  0.28449696  0.90240058    -0.81080
O310        O  0.04910592  0.29826433  0.55987353    -0.81100
O311        O  0.11090512  0.33808815  0.93939649    -0.81110
O312        O  0.41906165  0.21353340  0.50744314    -0.81050
O313        O  0.10772826  0.32541240  0.50692400    -0.81180
O314        O  0.40346523  0.24296026  0.95239175    -0.81100
O315        O  0.48847686  0.24586414  0.55638879    -0.81080
O316        O  0.02832906  0.27841756  0.93680001    -0.81120
C317        C  0.00629756  0.27347871  0.90610504     1.08610
C318        C  0.51776044  0.26623980  0.57823312     1.08490
C319        C  0.12612231  0.32949248  0.97264718     1.08630
C320        C  0.39402407  0.20966158  0.97929788     1.08510
O321        O  0.41965483  0.32327474  0.96249408    -0.81080
O322        O  0.08730911  0.38072434  0.51946409    -0.81160
O323        O  0.05029250  0.35821465  0.89414463    -0.81090
O324        O  0.47652989  0.31255640  0.56105157    -0.81070
O325        O  0.04668963  0.35270211  0.54429721    -0.81130
O326        O  0.49650079  0.36363952  0.90946266    -0.81090
O327        O  0.40401483  0.27817491  0.52148010    -0.81050
O328        O  0.09570690  0.39810959  0.95528703    -0.81120
Co329      Co  0.45393505  0.30487148  0.93560078     1.51530
Co330      Co  0.05283801  0.32295956  0.50195382     1.51690
Co331      Co  0.05575802  0.33399070  0.95211732     1.51570
Co332      Co  0.45158576  0.26661153  0.53180463     1.51470
O333        O  0.99527080  0.31408507  0.98302800    -1.43010
C334        C  0.39505910  0.30115262  0.99522896     1.08540
C335        C  0.11027729  0.40937458  0.98898370     1.08630
C336        C  0.02426607  0.36961449  0.88298009     1.08560
C337        C  0.01264634  0.34200904  0.56576673     1.08540
O338        O  0.28493901  0.30259504  0.91178757    -0.81080
O339        O  0.26396209  0.34560392  0.56671775    -0.81100
O340        O  0.27952473  0.40841412  0.96199663    -0.81110
O341        O  0.33804628  0.29079827  0.53989292    -0.81050
O342        O  0.22964912  0.37970233  0.51269475    -0.81180
O343        O  0.33037809  0.30110323  0.97353326    -0.81100
O344        O  0.32147977  0.35508029  0.53615026    -0.81080
O345        O  0.30794531  0.36769178  0.91540523    -0.81120
C346        C  0.30638750  0.34064094  0.89651562     1.08610
C347        C  0.30321804  0.36190485  0.56327708     1.08490
C348        C  0.25628221  0.41203204  0.98670581     1.08630
C349        C  0.35326577  0.29849770  0.00318282     1.08510
O350        O  0.26491438  0.22860344  0.95467407    -0.81080
O351        O  0.16651824  0.29850281  0.50114924    -0.81160
O352        O  0.22215107  0.31140789  0.90525636    -0.81090
O353        O  0.26430297  0.27609166  0.57988006    -0.81070
O354        O  0.20290485  0.26290175  0.56091818    -0.81130
O355        O  0.20598854  0.25234560  0.94850062    -0.81090
O356        O  0.26429015  0.23132277  0.51999210    -0.81050
O357        O  0.19599454  0.35081286  0.94759032    -0.81120
Co358      Co  0.26347002  0.27527871  0.96753168     1.51530
Co359      Co  0.21751230  0.31997026  0.53259107     1.51690
Co360      Co  0.25288595  0.35699916  0.93663816     1.51570
Co361      Co  0.29205825  0.29797907  0.52243612     1.51470
O362        O  0.25422749  0.31710592  0.98924152    -1.43010
C363        C  0.26274483  0.21078285  0.99136223     1.08540
C364        C  0.16408188  0.32488536  0.97280759     1.08630
C365        C  0.20302908  0.27164571  0.91361672     1.08560
C366        C  0.22595453  0.26131474  0.58935990     1.08540
C367        C  0.35977793  0.08415030  0.67397243    -0.10100
C368        C  0.33380073  0.05599480  0.71045907     0.06100
C369        C  0.29133311  0.02817086  0.70410928    -0.03870
C370        C  0.27835970  0.02639731  0.66370557    -0.08320
C371        C  0.30537608  0.05373027  0.62871276     0.05210
C372        C  0.34591674  0.08386768  0.63452919    -0.03340
Br373      Br  0.38472278  0.12450426  0.58905122    -0.03040
H374        H  0.39256710  0.10620207  0.67458588     0.09120
H375        H  0.24664595  0.00395112  0.65966787     0.07140
Br376      Br  0.24837203  0.99301723  0.74831823    -0.03460
C377        C  0.32487564  0.07516399  0.79690123    -0.10100
C378        C  0.33387992  0.04388096  0.79468395     0.06100
C379        C  0.33756694  0.02303586  0.83470577    -0.03870
C380        C  0.33174070  0.03400527  0.87168505    -0.08320
C381        C  0.32760636  0.06863090  0.87125977     0.05210
C382        C  0.32789438  0.09131903  0.83235417    -0.03340
Br383      Br  0.33844611  0.14793717  0.82402891    -0.03040
H384        H  0.32325894  0.09279346  0.76901041     0.09120
H385        H  0.33159424  0.01585753  0.90121304     0.07140
Br386      Br  0.34877154  0.97832076  0.84646322    -0.03460
C387        C  0.32284842  0.34765312  0.66950497    -0.10100
C388        C  0.31494274  0.37461773  0.68663251     0.06100
C389        C  0.30155559  0.39776172  0.65759548    -0.03870
C390        C  0.30726764  0.40125530  0.61493069    -0.08320
C391        C  0.32321171  0.37989427  0.59902631     0.05210
C392        C  0.33466204  0.35612977  0.62724860    -0.03340
Br393      Br  0.37144099  0.33970457  0.60972233    -0.03040
H394        H  0.33086333  0.32764696  0.68922517     0.09120
H395        H  0.29416720  0.41645253  0.59406127     0.07140
Br396      Br  0.26564785  0.41677427  0.67129737    -0.03460
C397        C  0.35531759  0.38913975  0.83711337    -0.10100
C398        C  0.32115248  0.35061540  0.85333544     0.06100
C399        C  0.29972039  0.32163504  0.82721878    -0.03870
C400        C  0.30322485  0.33606193  0.78469061    -0.08320
C401        C  0.33682652  0.37576494  0.76754775     0.05210
C402        C  0.36604265  0.39985286  0.79515218    -0.03340
Br403      Br  0.42111395  0.44789197  0.77922165    -0.03040
H404        H  0.37478151  0.40986842  0.85729486     0.09120
H405        H  0.28364953  0.31512918  0.76486756     0.07140
Br406      Br  0.27969967  0.26331746  0.84554514    -0.03460
C407        C  0.37762442  0.97462182  0.70467660    -0.10100
C408        C  0.34468090  0.43552723  0.72349775     0.06100
C409        C  0.31417571  0.43498662  0.74959840    -0.03870
C410        C  0.32139434  0.97135516  0.76007041    -0.08320
C411        C  0.35644450  0.01039103  0.74419295     0.05210
C412        C  0.38281922  0.01120011  0.71298958    -0.03340
Br413      Br  0.92670658  0.05784295  0.67700675    -0.03040
H414        H  0.40054739  0.97807077  0.68331287     0.09120
H415        H  0.29846021  0.96852194  0.78151427     0.07140
Br416      Br  0.26110380  0.38711384  0.77414044    -0.03460
C417        C  0.48796349  0.35560102  0.66935922    -0.10100
C418        C  0.01605053  0.39837180  0.66764796     0.06100
C419        C  0.04384206  0.42227423  0.63011401    -0.03870
C420        C  0.04365144  0.40228812  0.59896562    -0.08320
C421        C  0.01422528  0.36054945  0.60099507     0.05210
C422        C  0.48572623  0.33691267  0.63655350    -0.03340
Br423      Br  0.44163642  0.27896676  0.64374458    -0.03040
H424        H  0.46670805  0.33612886  0.69639349     0.09120
H425        H  0.06476770  0.42026890  0.57123753     0.07140
Br426      Br  0.08014127  0.48240985  0.61172949    -0.03460
C427        C  0.00310032  0.41780001  0.78028315    -0.10100
C428        C  0.01226105  0.39973896  0.75082296     0.06100
C429        C  0.02663682  0.37230777  0.76691090    -0.03870
C430        C  0.03124968  0.36451227  0.80946515    -0.08320
C431        C  0.02156235  0.38228946  0.83790063     0.05210
C432        C  0.00663537  0.40881712  0.82273808    -0.03340
Br433      Br  0.99198486  0.43502742  0.85817522    -0.03040
H434        H  0.99341463  0.43999066  0.76971658     0.09120
H435        H  0.04247679  0.34394573  0.82053554     0.07140
Br436      Br  0.04568862  0.34756401  0.73453637    -0.03460
C437        C  0.43490823  0.37498153  0.72593980    -0.10100
C438        C  0.96630707  0.41065539  0.69952517     0.06100
C439        C  0.45187903  0.42936763  0.66731219    -0.03870
C440        C  0.41200813  0.42334271  0.67331595    -0.08320
C441        C  0.38612020  0.39769233  0.70985310     0.05210
C442        C  0.39541117  0.36679750  0.73002162    -0.03340
Br443      Br  0.35896433  0.30920277  0.75859542    -0.03040
H444        H  0.44066417  0.35186454  0.74397428     0.09120
H445        H  0.40073640  0.43724602  0.64874313     0.07140
Br446      Br  0.98150447  0.46088745  0.61454783    -0.03460
C447        C  0.19115344  0.03712906  0.68590563    -0.10100
C448        C  0.18484622  0.06876727  0.69351061     0.06100
C449        C  0.18574585  0.09662245  0.65706986    -0.03870
C450        C  0.18596244  0.08797025  0.61756164    -0.08320
C451        C  0.18374553  0.05137031  0.61259288     0.05210
C452        C  0.18276351  0.02394011  0.64843263    -0.03340
Br453      Br  0.16481548  0.46587893  0.64998928    -0.03040
H454        H  0.19425425  0.51730220  0.71139554     0.09120
H455        H  0.19044464  0.11121177  0.59038199     0.07140
Br456      Br  0.20513955  0.15419229  0.65330559    -0.03460
C457        C  0.14593350  0.02041485  0.81140274    -0.10100
C458        C  0.17520484  0.04389712  0.77586124     0.06100
C459        C  0.21774333  0.06714206  0.78297046    -0.03870
C460        C  0.22838126  0.07171363  0.82304863    -0.08320
C461        C  0.19877127  0.05218209  0.85700853     0.05210
C462        C  0.15724350  0.02488731  0.85136614    -0.03340
Br463      Br  0.11507436  0.99428383  0.89689671    -0.03040
H464        H  0.11335547  0.99937793  0.80820252     0.09120
H465        H  0.26023344  0.09103419  0.82814476     0.07140
Br466      Br  0.26248517  0.09706337  0.73952407    -0.03460
C467        C  0.08888881  0.03127648  0.70742404    -0.10100
C468        C  0.11726272  0.02194880  0.72868097     0.06100
C469        C  0.11109384  0.48167705  0.73088979    -0.03870
C470        C  0.08387735  0.45829192  0.70583051    -0.08320
C471        C  0.04771135  0.46047605  0.69926273     0.05210
C472        C  0.05049698  0.99893802  0.69980391    -0.03340
Br473      Br  0.00687464  0.01139114  0.69674900    -0.03040
H474        H  0.09409251  0.06244849  0.70179707     0.09120
H475        H  0.08464303  0.43112505  0.70207489     0.07140
Br476      Br  0.13614971  0.45357524  0.76438616    -0.03460
C477        C  0.21781156  0.25016950  0.70731257    -0.10100
C478        C  0.17463830  0.22134763  0.71809761     0.06100
C479        C  0.15169522  0.20550733  0.68337892    -0.03870
C480        C  0.16707871  0.22757628  0.64318115    -0.08320
C481        C  0.20990684  0.24920510  0.63367336     0.05210
C482        C  0.23543916  0.25645610  0.66722671    -0.03340
Br483      Br  0.28452529  0.25272266  0.66467372    -0.03040
H484        H  0.23840955  0.26149355  0.73120174     0.09120
H485        H  0.14661646  0.21806214  0.61847227     0.07140
Br486      Br  0.11722442  0.14750922  0.68040840    -0.03460
C487        C  0.18009539  0.19949131  0.83903004    -0.10100
C488        C  0.17950824  0.22336337  0.80029572     0.06100
C489        C  0.18305409  0.26205901  0.80155960    -0.03870
C490        C  0.18764886  0.27561008  0.83923159    -0.08320
C491        C  0.18727713  0.25100931  0.87734028     0.05210
C492        C  0.18131517  0.21154388  0.87674290    -0.03340
Br493      Br  0.17314485  0.17115061  0.92578093    -0.03040
H494        H  0.17537442  0.16865581  0.84157494     0.09120
H495        H  0.19119233  0.30582497  0.83861295     0.07140
Br496      Br  0.17482090  0.29453016  0.75445165    -0.03460
C497        C  0.12461412  0.12072426  0.78487835    -0.10100
C498        C  0.15977328  0.16035919  0.77139718     0.06100
C499        C  0.19687627  0.16239152  0.76111732    -0.03870
C500        C  0.19387410  0.13003736  0.74621238    -0.08320
C501        C  0.15576308  0.09245410  0.74776083     0.05210
C502        C  0.12153251  0.08641267  0.77317420    -0.03340
Br503      Br  0.06882952  0.03591782  0.79455624    -0.03040
H504        H  0.09879319  0.11653532  0.80338608     0.09120
H505        H  0.22229824  0.13496671  0.73335088     0.07140
Br506      Br  0.25184015  0.20297206  0.77243067    -0.03250
C507        C  0.48558396  0.21546950  0.64291127    -0.10100
C508        C  0.51534038  0.25557670  0.62442965     0.06100
C509        C  0.04318704  0.28258564  0.65060769    -0.03870
C510        C  0.03847324  0.26830088  0.69434306    -0.08320
C511        C  0.00963645  0.22630407  0.71271839     0.05210
C512        C  0.48953147  0.20015964  0.68281999    -0.03340
Br513      Br  0.48999821  0.15083110  0.68231489    -0.03040
H514        H  0.46624600  0.19350214  0.62365261     0.09120
H515        H  0.06035789  0.28880876  0.71304977     0.07140
Br516      Br  0.09019645  0.33768023  0.62978058    -0.03460
C517        C  0.47246858  0.22312305  0.86332935    -0.10100
C518        C  0.00986119  0.25572575  0.87174650     0.06100
C519        C  0.04422351  0.27575065  0.84171901    -0.03870
C520        C  0.03953594  0.26320159  0.80336979    -0.08320
C521        C  0.00306535  0.22658770  0.79619189     0.05210
C522        C  0.46971851  0.20539537  0.82965751    -0.03340
Br523      Br  0.42715380  0.14681504  0.84742102    -0.03040
H524        H  0.44592244  0.20836697  0.88632571     0.09120
H525        H  0.06679294  0.27886587  0.78149276     0.07140
Br526      Br  0.09845833  0.31929232  0.85131756    -0.03460
C527        C  0.06656890  0.20080532  0.73375128    -0.10100
C528        C  0.04484304  0.20060144  0.76817963     0.06100
C529        C  0.05730938  0.18964238  0.80809898    -0.03870
C530        C  0.09274830  0.18634235  0.80914384    -0.08320
C531        C  0.11124776  0.18731484  0.77190530     0.05210
C532        C  0.08482248  0.17741756  0.74056543    -0.03340
Br533      Br  0.04355287  0.11825004  0.74662183    -0.03040
H534        H  0.06400909  0.21136011  0.70190423     0.09120
H535        H  0.10501822  0.18293526  0.83850632     0.07140
Br536      Br  0.02977623  0.17474363  0.86208455    -0.03460
C537        C  0.46530254  0.12555421  0.77901702    -0.10100
C538        C  0.46682221  0.16361003  0.76559114     0.06100
C539        C  0.43033827  0.16243746  0.75216787    -0.03870
C540        C  0.39912933  0.12656638  0.74200692    -0.08320
C541        C  0.39802884  0.08802066  0.75150757     0.05210
C542        C  0.43165080  0.08810613  0.77236147    -0.03340
Br543      Br  0.43838834  0.04148456  0.79062938    -0.03040
H544        H  0.49008135  0.12444033  0.79507137     0.09120
H545        H  0.37473171  0.12957006  0.72690867     0.07140
Br546      Br  0.42278589  0.20991499  0.74232096    -0.03460
C547        C  0.50678975  0.70575285  0.26082323    -0.03430
C548        C  0.15719511  0.69927529  0.26518607    -0.03430
C549        C  0.15909388  0.55733475  0.23605068    -0.03430
C550        C  0.01017617  0.91721791  0.20313465    -0.03430
C551        C  0.34425999  0.89497174  0.22107844    -0.03430
C552        C  0.35502903  0.54861596  0.25080327    -0.03430
O553        O  0.30767603  0.55143109  0.44451419    -0.81080
O554        O  0.28027376  0.58467132  0.07714707    -0.81100
O555        O  0.32826133  0.66361532  0.44938250    -0.81110
O556        O  0.24932261  0.96443294  0.01429828    -0.81050
O557        O  0.33401858  0.63631290  0.00945376    -0.81180
O558        O  0.25115801  0.96917338  0.44592701    -0.81100
O559        O  0.28278465  0.53033502  0.06470858    -0.81080
O560        O  0.29997608  0.59983841  0.40549440    -0.81120
C561        C  0.31495298  0.57617297  0.41002179     1.08610
C562        C  0.28889034  0.55620198  0.08786257     1.08490
C563        C  0.35107603  0.66736470  0.47914148     1.08630
C564        C  0.25371589  0.95136172  0.48171562     1.08510
O565        O  0.18199946  0.97201061  0.46230016    -0.81080
O566        O  0.27692661  0.65764653  0.03001728    -0.81160
O567        O  0.21539688  0.57600049  0.42078139    -0.81090
O568        O  0.20377516  0.51937177  0.07323413    -0.81070
O569        O  0.20949019  0.57787468  0.04061042    -0.81130
O570        O  0.23291293  0.53172555  0.40549546    -0.81090
O571        O  0.16739439  0.95952285  0.02718411    -0.81050
O572        O  0.24532204  0.64367319  0.47198839    -0.81120
Co573      Co  0.24695686  0.51383501  0.46003050     1.51530
Co574      Co  0.26951506  0.60474800  0.02092107     1.51690
Co575      Co  0.26964427  0.61387174  0.44263673     1.51570
Co576      Co  0.22864193  0.50025007  0.03861757     1.51470
O577        O  0.25072033  0.55693794  0.49049007    -1.43010
C578        C  0.15461898  0.94974520  0.49278130     1.08540
C579        C  0.26081652  0.66842448  0.49901495     1.08630
C580        C  0.21462289  0.55217736  0.39754373     1.08560
C581        C  0.19621468  0.54806126  0.07192081     1.08540
O582        O  0.47960937  0.78449672  0.40240039    -0.81080
O583        O  0.04910628  0.79826471  0.05987311    -0.81100
O584        O  0.11090497  0.83808807  0.43939631    -0.81110
O585        O  0.41906154  0.71353368  0.00744278    -0.81050
O586        O  0.10772848  0.82541279  0.00692353    -0.81180
O587        O  0.40346510  0.74295989  0.45239153    -0.81100
O588        O  0.48847674  0.74586432  0.05638846    -0.81080
O589        O  0.02832894  0.77841749  0.43679997    -0.81120
C590        C  0.00629749  0.77347863  0.40610497     1.08610
C591        C  0.51776037  0.76623994  0.07823276     1.08490
C592        C  0.12612215  0.82949234  0.47264697     1.08630
C593        C  0.39402384  0.70966128  0.47929783     1.08510
O594        O  0.41965449  0.82327432  0.46249365    -0.81080
O595        O  0.08730931  0.88072468  0.01946380    -0.81160
O596        O  0.05029237  0.85821458  0.39414453    -0.81090
O597        O  0.47652992  0.81255669  0.06105120    -0.81070
O598        O  0.04668987  0.85270246  0.04429694    -0.81130
O599        O  0.49650052  0.86363922  0.40946236    -0.81090
O600        O  0.40401492  0.77817535  0.02147959    -0.81050
O601        O  0.09570683  0.89810955  0.45528691    -0.81120
Co602      Co  0.45393487  0.80487114  0.43560051     1.51530
Co603      Co  0.05283822  0.82295995  0.00195345     1.51690
Co604      Co  0.05575791  0.83399065  0.45211722     1.51570
Co605      Co  0.45158574  0.76661183  0.03180424     1.51470
O606        O  0.99527070  0.81408505  0.48302790    -1.43010
C607        C  0.39505882  0.80115232  0.49522858     1.08540
C608        C  0.11027728  0.90937451  0.48898357     1.08630
C609        C  0.02426595  0.86961443  0.38297995     1.08560
C610        C  0.01264660  0.84200944  0.06576648     1.08540
O611        O  0.28493875  0.80259464  0.41178707    -0.81080
O612        O  0.26396230  0.84560445  0.06671703    -0.81100
O613        O  0.27952455  0.90841377  0.46199622    -0.81110
O614        O  0.33804653  0.79079896  0.03989223    -0.81050
O615        O  0.22964930  0.87970278  0.01269403    -0.81180
O616        O  0.33037774  0.80110276  0.47353280    -0.81100
O617        O  0.32148003  0.85508100  0.03614945    -0.81080
O618        O  0.30794503  0.86769138  0.41540479    -0.81120
C619        C  0.30638724  0.84064055  0.39651516     1.08610
C620        C  0.30321826  0.86190548  0.06327632     1.08490
C621        C  0.25628208  0.91203172  0.48670542     1.08630
C622        C  0.35326545  0.79849733  0.50318238     1.08510
O623        O  0.26491398  0.72860291  0.45467377    -0.81080
O624        O  0.16651846  0.79850325  0.00114854    -0.81160
O625        O  0.22215082  0.81140765  0.40525583    -0.81090
O626        O  0.26430336  0.77609236  0.07987922    -0.81070
O627        O  0.20290515  0.76290223  0.06091741    -0.81130
O628        O  0.20598824  0.75234527  0.44849995    -0.81090
O629        O  0.26429041  0.73132340  0.01999148    -0.81050
O630        O  0.19599430  0.85081257  0.44758995    -0.81120
Co631      Co  0.26346967  0.77527829  0.46753119     1.51530
Co632      Co  0.21751253  0.81997074  0.03259034     1.51690
Co633      Co  0.25288570  0.85699884  0.43663771     1.51570
Co634      Co  0.29205855  0.79797976  0.02243533     1.51470
O635        O  0.25422717  0.81710553  0.48924103    -1.43010
C636        C  0.26274443  0.71078242  0.49136199     1.08540
C637        C  0.16408167  0.82488513  0.47280728     1.08630
C638        C  0.20302887  0.77164547  0.41361606     1.08560
C639        C  0.22595489  0.76131522  0.08935906     1.08540
C640        C  0.35977697  0.58415192  0.17397270    -0.10100
C641        C  0.33380018  0.55599541  0.21045915     0.06100
C642        C  0.29133278  0.52817072  0.20410919    -0.03870
C643        C  0.27835951  0.52639711  0.16370543    -0.08320
C644        C  0.30537569  0.55373090  0.12871280     0.05210
C645        C  0.34591581  0.58386932  0.13452949    -0.03340
Br646      Br  0.38472140  0.62450723  0.08905187    -0.03040
H647        H  0.39256603  0.60620418  0.17458603     0.09120
H648        H  0.24664598  0.50395030  0.15966755     0.07140
Br649      Br  0.24837173  0.49301616  0.24831797    -0.03460
C650        C  0.32487566  0.57516428  0.29690158    -0.10100
C651        C  0.33388021  0.54388151  0.29468402     0.06100
C652        C  0.33756799  0.52303678  0.33470572    -0.03870
C653        C  0.33174154  0.53400585  0.37168514    -0.08320
C654        C  0.32760669  0.56863114  0.37126008     0.05210
C655        C  0.32789454  0.59131928  0.33235456    -0.03340
Br656      Br  0.33844535  0.64793709  0.32402944    -0.03040
H657        H  0.32325869  0.59279371  0.26901093     0.09120
H658        H  0.33159544  0.51585822  0.40121306     0.07140
Br659      Br  0.34877445  0.47832296  0.34646281    -0.03460
C660        C  0.32284900  0.84765368  0.16950411    -0.10100
C661        C  0.31494300  0.87461795  0.18663193     0.06100
C662        C  0.30155561  0.89776184  0.15759508    -0.03870
C663        C  0.30726760  0.90125558  0.11493023    -0.08320
C664        C  0.32321190  0.87989486  0.09902561     0.05210
C665        C  0.33466254  0.85613052  0.12724771    -0.03340
Br666      Br  0.37144169  0.83970568  0.10972115    -0.03040
H667        H  0.33086418  0.82764765  0.18922413     0.09120
H668        H  0.29416696  0.91645270  0.09406096     0.07140
Br669      Br  0.26564759  0.91677394  0.17129728    -0.03460
C670        C  0.35531742  0.88913951  0.33711303    -0.10100
C671        C  0.32115232  0.85061511  0.35333500     0.06100
C672        C  0.29972032  0.82163485  0.32721824    -0.03870
C673        C  0.30322485  0.83606185  0.28469007    -0.08320
C674        C  0.33682650  0.87576491  0.26754732     0.05210
C675        C  0.36604255  0.89985276  0.29515185    -0.03340
Br676      Br  0.42111385  0.94789193  0.27922148    -0.03040
H677        H  0.37478126  0.90986812  0.35729459     0.09120
H678        H  0.28364960  0.81512916  0.26486695     0.07140
Br679      Br  0.27969966  0.76331726  0.34554449    -0.03460
C680        C  0.37762422  0.47462213  0.20467666    -0.10100
C681        C  0.34468096  0.93552731  0.22349740     0.06100
C682        C  0.31417577  0.93498668  0.24959808    -0.03870
C683        C  0.32139468  0.47135568  0.26007102    -0.08320
C684        C  0.35644426  0.51039163  0.24419252     0.05210
C685        C  0.38281838  0.51120056  0.21298860    -0.03340
Br686      Br  0.92670749  0.55784279  0.17700765    -0.03040
H687        H  0.40054702  0.47807108  0.18331272     0.09120
H688        H  0.29846087  0.46852252  0.28151528     0.07140
Br689      Br  0.26110394  0.88711389  0.27414030    -0.03460
C690        C  0.48796362  0.85560120  0.16935896    -0.10100
C691        C  0.01605088  0.89837220  0.16764778     0.06100
C692        C  0.04384244  0.92227460  0.13011384    -0.03870
C693        C  0.04365184  0.90228846  0.09896547    -0.08320
C694        C  0.01422559  0.86054983  0.10099487     0.05210
C695        C  0.48572634  0.83691285  0.13655322    -0.03340
Br696      Br  0.44163657  0.77896692  0.14374430    -0.03040
H697        H  0.46670819  0.83612903  0.19639323     0.09120
H698        H  0.06476814  0.92026922  0.07123741     0.07140
Br699      Br  0.08014164  0.98241022  0.11172929    -0.03460
C700        C  0.00310071  0.91780042  0.28028298    -0.10100
C701        C  0.01226143  0.89973938  0.25082278     0.06100
C702        C  0.02663711  0.87230811  0.26691071    -0.03870
C703        C  0.03124981  0.86451246  0.30946498    -0.08320
C704        C  0.02156243  0.88228959  0.33790048     0.05210
C705        C  0.00663561  0.90881739  0.32273793    -0.03340
Br706      Br  0.99198513  0.93502768  0.35817510    -0.03040
H707        H  0.99341508  0.93999112  0.26971643     0.09120
H708        H  0.04247681  0.84394583  0.32053535     0.07140
Br709      Br  0.04568898  0.84756443  0.23453613    -0.03460
C710        C  0.43490840  0.87498174  0.22593958    -0.10100
C711        C  0.96630744  0.91065579  0.19952503     0.06100
C712        C  0.45187926  0.92936787  0.16731197    -0.03870
C713        C  0.41200837  0.92334295  0.17331569    -0.08320
C714        C  0.38612038  0.89769252  0.20985280     0.05210
C715        C  0.39541133  0.86679768  0.23002130    -0.03340
Br716      Br  0.35896439  0.80920282  0.25859473    -0.03040
H717        H  0.44066431  0.85186473  0.24397406     0.09120
H718        H  0.40073666  0.93724626  0.14874283     0.07140
Br719      Br  0.98150487  0.96088787  0.11454770    -0.03460
C720        C  0.19115204  0.53712790  0.18590609    -0.10100
C721        C  0.18484519  0.56876627  0.19351130     0.06100
C722        C  0.18574559  0.59662205  0.15707073    -0.03870
C723        C  0.18596218  0.58797017  0.11756234    -0.08320
C724        C  0.18374507  0.55137022  0.11259319     0.05210
C725        C  0.18276266  0.52393957  0.14843279    -0.03340
Br726      Br  0.16481580  0.96587935  0.14998913    -0.03040
H727        H  0.19425474  0.01730279  0.21139530     0.09120
H728        H  0.19044489  0.61121207  0.09038286     0.07140
Br729      Br  0.20514151  0.65419235  0.15330693    -0.03460
C730        C  0.14593249  0.52041466  0.31140366    -0.10100
C731        C  0.17520377  0.54389621  0.27586201     0.06100
C732        C  0.21774238  0.56714034  0.28297092    -0.03870
C733        C  0.22838091  0.57171183  0.32304903    -0.08320
C734        C  0.19877094  0.55218114  0.35700904     0.05210
C735        C  0.15724286  0.52488728  0.35136695    -0.03340
Br736      Br  0.11507386  0.49428519  0.39689774    -0.03040
H737        H  0.11335437  0.49937826  0.30820362     0.09120
H738        H  0.26023214  0.59103102  0.32814481     0.07140
Br739      Br  0.26248394  0.59706105  0.23952426    -0.03460
C740        C  0.08888803  0.53127570  0.20742456    -0.10100
C741        C  0.11726174  0.52194797  0.22868185     0.06100
C742        C  0.11109426  0.98167754  0.23088947    -0.03870
C743        C  0.08387771  0.95829234  0.20583028    -0.08320
C744        C  0.04771170  0.96047647  0.19926252     0.05210
C745        C  0.05049628  0.49893726  0.19980425    -0.03340
Br746      Br  0.00687401  0.51139047  0.19674878    -0.03040
H747        H  0.09409178  0.56244773  0.20179740     0.09120
H748        H  0.08464337  0.93112546  0.20207470     0.07140
Br749      Br  0.13615016  0.95357575  0.26438583    -0.03460
C750        C  0.21781189  0.75016977  0.20731167    -0.10100
C751        C  0.17463869  0.72134759  0.21809666     0.06100
C752        C  0.15169576  0.70550696  0.18337805    -0.03870
C753        C  0.16707907  0.72757584  0.14318027    -0.08320
C754        C  0.20990720  0.74920524  0.13367249     0.05210
C755        C  0.23543958  0.75645654  0.16722580    -0.03340
Br756      Br  0.28452596  0.75272354  0.16467276    -0.03040
H757        H  0.23840981  0.76149401  0.23120084     0.09120
H758        H  0.14661685  0.71806138  0.11847141     0.07140
Br759      Br  0.11722549  0.64750876  0.18040788    -0.03460
C760        C  0.18009537  0.69949132  0.33902915    -0.10100
C761        C  0.17950833  0.72336348  0.30029482     0.06100
C762        C  0.18305435  0.76205918  0.30155874    -0.03870
C763        C  0.18764901  0.77561014  0.33923080    -0.08320
C764        C  0.18727707  0.75100923  0.37733949     0.05210
C765        C  0.18131506  0.71154381  0.37674204    -0.03340
Br766      Br  0.17314460  0.67115041  0.42578001    -0.03040
H767        H  0.17537437  0.66865582  0.34157404     0.09120
H768        H  0.19119256  0.80582506  0.33861219     0.07140
Br769      Br  0.17482156  0.79453055  0.25445070    -0.03460
C770        C  0.12461331  0.62072437  0.28487757    -0.10100
C771        C  0.15977281  0.66035911  0.27139645     0.06100
C772        C  0.19687577  0.66239097  0.26111745    -0.03870
C773        C  0.19387355  0.63003632  0.24621352    -0.08320
C774        C  0.15576235  0.59245338  0.24776148     0.05210
C775        C  0.12153159  0.58641244  0.27317412    -0.03340
Br776      Br  0.06882831  0.53591793  0.29455611    -0.03040
H777        H  0.09879223  0.61653579  0.30338472     0.09120
H778        H  0.22229777  0.63496516  0.23335286     0.07140
Br779      Br  0.25183984  0.70297207  0.27242982    -0.03250
C780        C  0.48558418  0.71546945  0.14291084    -0.10100
C781        C  0.51534041  0.75557675  0.12442928     0.06100
C782        C  0.04318728  0.78258625  0.15060722    -0.03870
C783        C  0.03847337  0.76830153  0.19434261    -0.08320
C784        C  0.00963617  0.72630483  0.21271797     0.05210
C785        C  0.48953162  0.70015959  0.18281960    -0.03340
Br786      Br  0.48999762  0.65083054  0.18231478    -0.03040
H787        H  0.46624632  0.69350209  0.12365214     0.09120
H788        H  0.06035832  0.78880922  0.21304929     0.07140
Br789      Br  0.09019716  0.83768053  0.12978006    -0.03460
C790        C  0.47246898  0.72312299  0.36332919    -0.10100
C791        C  0.00986121  0.75572573  0.37174642     0.06100
C792        C  0.04422348  0.77575081  0.34171885    -0.03870
C793        C  0.03953588  0.76320192  0.30336954    -0.08320
C794        C  0.00306535  0.72658801  0.29619159     0.05210
C795        C  0.46971891  0.70539542  0.32965728    -0.03340
Br796      Br  0.42715391  0.64681515  0.34742063    -0.03040
H797        H  0.44592284  0.70836686  0.38632556     0.09120
H798        H  0.06679284  0.77886637  0.28149243     0.07140
Br799      Br  0.09845829  0.81929249  0.35131741    -0.03460
C800        C  0.06656913  0.70080654  0.23374997    -0.10100
C801        C  0.04484333  0.70060235  0.26817860     0.06100
C802        C  0.05730972  0.68964303  0.30809780    -0.03870
C803        C  0.09274845  0.68634277  0.30914244    -0.08320
C804        C  0.11124800  0.68731565  0.27190380     0.05210
C805        C  0.08482293  0.67741896  0.24056365    -0.03340
Br806      Br  0.04355321  0.61825159  0.24661908    -0.03040
H807        H  0.06400857  0.71136083  0.20190301     0.09120
H808        H  0.10501821  0.68293518  0.33850491     0.07140
Br809      Br  0.02977672  0.67474400  0.36208351    -0.03460
C810        C  0.46530276  0.62555444  0.27901630    -0.10100
C811        C  0.46682248  0.66361031  0.26559081     0.06100
C812        C  0.43033854  0.66243797  0.25216787    -0.03870
C813        C  0.39912922  0.62656691  0.24200734    -0.08320
C814        C  0.39802879  0.58802120  0.25150720     0.05210
C815        C  0.43165105  0.58810654  0.27236037    -0.03340
Br816      Br  0.43838955  0.54148533  0.29062607    -0.03040
H817        H  0.49008174  0.62444043  0.29507015     0.09120
H818        H  0.37473144  0.62957072  0.22690964     0.07140
Br819      Br  0.42278641  0.70991567  0.24232125    -0.03460
C820        C  0.50679002  0.70575299  0.76082321    -0.03430
C821        C  0.15719537  0.69927486  0.76518643    -0.03430
C822        C  0.15909421  0.55733444  0.73605078    -0.03430
C823        C  0.01017626  0.91721804  0.70313471    -0.03430
C824        C  0.34425991  0.89497156  0.72107823    -0.03430
C825        C  0.35502947  0.54861593  0.75080332    -0.03430
O826        O  0.30767627  0.55143148  0.94451411    -0.81080
O827        O  0.28027366  0.58467104  0.57714728    -0.81100
O828        O  0.32826149  0.66361557  0.94938230    -0.81110
O829        O  0.24932207  0.96443231  0.51429843    -0.81050
O830        O  0.33401846  0.63631272  0.50945398    -0.81180
O831        O  0.25115745  0.96917350  0.94592691    -0.81100
O832        O  0.28278475  0.53033489  0.56470865    -0.81080
O833        O  0.29997621  0.59983866  0.90549419    -0.81120
C834        C  0.31495315  0.57617325  0.91002164     1.08610
C835        C  0.28889038  0.55620178  0.58786270     1.08490
C836        C  0.35107618  0.66736490  0.97914128     1.08630
C837        C  0.25371593  0.95136212  0.98171542     1.08510
O838        O  0.18199911  0.97201119  0.96230004    -0.81080
O839        O  0.27692636  0.65764621  0.53001745    -0.81160
O840        O  0.21539703  0.57600076  0.92078122    -0.81090
O841        O  0.20377514  0.51937144  0.57323423    -0.81070
O842        O  0.20949004  0.57787429  0.54061054    -0.81130
O843        O  0.23291310  0.53172576  0.90549544    -0.81090
O844        O  0.16739414  0.95952292  0.52718404    -0.81050
O845        O  0.24532228  0.64367356  0.97198822    -0.81120
Co846      Co  0.24695711  0.51383532  0.96003043     1.51530
Co847      Co  0.26951492  0.60474771  0.52092126     1.51690
Co848      Co  0.26964442  0.61387201  0.94263655     1.51570
Co849      Co  0.22864200  0.50024980  0.53861770     1.51470
O850        O  0.25072040  0.55693820  0.99048993    -1.43010
C851        C  0.15461895  0.94974540  0.99278135     1.08540
C852        C  0.26081679  0.66842484  0.99901480     1.08630
C853        C  0.21462303  0.55217753  0.89754367     1.08560
C854        C  0.19621458  0.54806088  0.57192093     1.08540
O855        O  0.47960960  0.78449690  0.90240031    -0.81080
O856        O  0.04910596  0.79826483  0.55987316    -0.81100
O857        O  0.11090532  0.83808856  0.93939622    -0.81110
O858        O  0.41906138  0.71353360  0.50744298    -0.81050
O859        O  0.10772825  0.82541275  0.50692362    -0.81180
O860        O  0.40346529  0.74296008  0.95239140    -0.81100
O861        O  0.48847665  0.74586442  0.55638859    -0.81080
O862        O  0.02832942  0.77841778  0.93679991    -0.81120
C863        C  0.00629796  0.77347888  0.90610492     1.08610
C864        C  0.51776028  0.76624012  0.57823285     1.08490
C865        C  0.12612245  0.82949263  0.97264682     1.08630
C866        C  0.39402401  0.70966143  0.97929765     1.08510
O867        O  0.41965477  0.82327452  0.96249364    -0.81080
O868        O  0.08730907  0.88072473  0.51946372    -0.81160
O869        O  0.05029258  0.85821479  0.89414455    -0.81090
O870        O  0.47652975  0.81255677  0.56105125    -0.81070
O871        O  0.04668964  0.85270257  0.54429684    -0.81130
O872        O  0.49650075  0.86363941  0.90946231    -0.81090
O873        O  0.40401472  0.77817525  0.52147967    -0.81050
O874        O  0.09570677  0.89810978  0.95528700    -0.81120
Co875      Co  0.45393511  0.80487132  0.93560044     1.51530
Co876      Co  0.05283799  0.82295996  0.50195346     1.51690
Co877      Co  0.05575816  0.83399090  0.95211722     1.51570
Co878      Co  0.45158559  0.76661183  0.53180435     1.51470
O879        O  0.99527089  0.81408508  0.98302793    -1.43010
C880        C  0.39505908  0.80115251  0.99522856     1.08540
C881        C  0.11027732  0.90937462  0.98898367     1.08630
C882        C  0.02426611  0.86961455  0.88297998     1.08560
C883        C  0.01264638  0.84200954  0.56576640     1.08540
O884        O  0.28493911  0.80259501  0.91178700    -0.81080
O885        O  0.26396213  0.84560406  0.56671714    -0.81100
O886        O  0.27952471  0.90841426  0.96199588    -0.81110
O887        O  0.33804625  0.79079866  0.53989225    -0.81050
O888        O  0.22964906  0.87970237  0.51269427    -0.81180
O889        O  0.33037812  0.80110318  0.97353277    -0.81100
O890        O  0.32147977  0.85508069  0.53614931    -0.81080
O891        O  0.30794533  0.86769178  0.91540455    -0.81120
C892        C  0.30638757  0.84064090  0.89651501     1.08610
C893        C  0.30321810  0.86190518  0.56327624     1.08490
C894        C  0.25628224  0.91203216  0.98670514     1.08630
C895        C  0.35326576  0.79849764  0.00318236     1.08510
O896        O  0.26491439  0.72860336  0.95467367    -0.81080
O897        O  0.16651811  0.79850291  0.50114883    -0.81160
O898        O  0.22215113  0.81140791  0.90525568    -0.81090
O899        O  0.26430318  0.77609206  0.57987929    -0.81070
O900        O  0.20290487  0.76290183  0.56091768    -0.81130
O901        O  0.20598862  0.75234564  0.94849996    -0.81090
O902        O  0.26429010  0.73132304  0.51999157    -0.81050
O903        O  0.19599457  0.85081291  0.94758969    -0.81120
Co904      Co  0.26347006  0.77527872  0.96753112     1.51530
Co905      Co  0.21751225  0.81997034  0.53259056     1.51690
Co906      Co  0.25288598  0.85699921  0.93663748     1.51570
Co907      Co  0.29205825  0.79797939  0.52243536     1.51470
O908        O  0.25422756  0.81710600  0.98924089    -1.43010
C909        C  0.26274477  0.71078281  0.99136188     1.08540
C910        C  0.16408197  0.82488546  0.97280704     1.08630
C911        C  0.20302921  0.77164573  0.91361601     1.08560
C912        C  0.22595472  0.76131485  0.58935924     1.08540
C913        C  0.35977748  0.58415139  0.67397257    -0.10100
C914        C  0.33380064  0.55599526  0.71045914     0.06100
C915        C  0.29133313  0.52817079  0.70410934    -0.03870
C916        C  0.27835968  0.52639722  0.66370564    -0.08320
C917        C  0.30537584  0.55373072  0.62871289     0.05210
C918        C  0.34591618  0.58386879  0.63452940    -0.03340
Br919      Br  0.38472180  0.62450627  0.58905160    -0.03040
H920        H  0.39256659  0.60620346  0.67458584     0.09120
H921        H  0.24664603  0.50395064  0.65966790     0.07140
Br922      Br  0.24837215  0.49301641  0.74831824    -0.03460
C923        C  0.32487622  0.57516455  0.79690143    -0.10100
C924        C  0.33388065  0.54388166  0.79468400     0.06100
C925        C  0.33756821  0.52303687  0.83470576    -0.03870
C926        C  0.33174168  0.53400599  0.87168513    -0.08320
C927        C  0.32760686  0.56863132  0.87125998     0.05210
C928        C  0.32789484  0.59131947  0.83235442    -0.03340
Br929      Br  0.33844564  0.64793727  0.82402924    -0.03040
H930        H  0.32325944  0.59279407  0.76901073     0.09120
H931        H  0.33159549  0.51585836  0.90121308     0.07140
Br932      Br  0.34877448  0.47832293  0.84646296    -0.03460
C933        C  0.32284900  0.84765354  0.66950391    -0.10100
C934        C  0.31494294  0.87461777  0.68663170     0.06100
C935        C  0.30155561  0.89776170  0.65759479    -0.03870
C936        C  0.30726771  0.90125550  0.61492996    -0.08320
C937        C  0.32321192  0.87989470  0.59902538     0.05210
C938        C  0.33466255  0.85613037  0.62724750    -0.03340
Br939      Br  0.37144176  0.83970560  0.60972096    -0.03040
H940        H  0.33086421  0.82764754  0.68922394     0.09120
H941        H  0.29416712  0.91645266  0.59406064     0.07140
Br942      Br  0.26564755  0.91677385  0.67129677    -0.03460
C943        C  0.35531763  0.88913973  0.83711277    -0.10100
C944        C  0.32115261  0.85061533  0.85333485     0.06100
C945        C  0.29972062  0.82163494  0.82721821    -0.03870
C946        C  0.30322504  0.83606180  0.78469003    -0.08320
C947        C  0.33682658  0.87576488  0.76754715     0.05210
C948        C  0.36604268  0.89985288  0.79515158    -0.03340
Br949      Br  0.42111394  0.94789215  0.77922114    -0.03040
H950        H  0.37478148  0.90986845  0.85729425     0.09120
H951        H  0.28364978  0.81512901  0.76486699     0.07140
Br952      Br  0.27970008  0.76331739  0.84554462    -0.03460
C953        C  0.37762442  0.47462201  0.70467664    -0.10100
C954        C  0.34468071  0.93552701  0.72349721     0.06100
C955        C  0.31417530  0.93498622  0.74959770    -0.03870
C956        C  0.32139493  0.47135565  0.76007101    -0.08320
C957        C  0.35644468  0.51039155  0.74419271     0.05210
C958        C  0.38281889  0.51120044  0.71298890    -0.03340
Br959      Br  0.92670525  0.55784342  0.67700479    -0.03040
H960        H  0.40054724  0.47807087  0.68331277     0.09120
H961        H  0.29846114  0.46852253  0.78151526     0.07140
Br962      Br  0.26110346  0.88711328  0.77413961    -0.03460
C963        C  0.48796376  0.85560156  0.66935898    -0.10100
C964        C  0.01605095  0.89837232  0.66764781     0.06100
C965        C  0.04384242  0.92227474  0.63011381    -0.03870
C966        C  0.04365165  0.90228862  0.59896534    -0.08320
C967        C  0.01422541  0.86054998  0.60099477     0.05210
C968        C  0.48572634  0.83691316  0.63655323    -0.03340
Br969      Br  0.44163654  0.77896723  0.64374443    -0.03040
H970        H  0.46670841  0.83612942  0.69639331     0.09120
H971        H  0.06476786  0.92026939  0.57123722     0.07140
Br972      Br  0.08014172  0.98241035  0.61172930    -0.03460
C973        C  0.00310083  0.91780053  0.78028304    -0.10100
C974        C  0.01226159  0.89973954  0.75082282     0.06100
C975        C  0.02663732  0.87230830  0.76691073    -0.03870
C976        C  0.03125002  0.86451264  0.80946500    -0.08320
C977        C  0.02156258  0.88228972  0.83790052     0.05210
C978        C  0.00663573  0.90881750  0.82273798    -0.03340
Br979      Br  0.99198520  0.93502773  0.85817518    -0.03040
H980        H  0.99341517  0.93999121  0.76971650     0.09120
H981        H  0.04247703  0.84394601  0.82053537     0.07140
Br982      Br  0.04568919  0.84756462  0.73453614    -0.03460
C983        C  0.43490864  0.87498207  0.72593963    -0.10100
C984        C  0.96630748  0.91065583  0.69952512     0.06100
C985        C  0.45187939  0.92936811  0.66731192    -0.03870
C986        C  0.41200838  0.92334296  0.67331551    -0.08320
C987        C  0.38612036  0.89769246  0.70985256     0.05210
C988        C  0.39541145  0.86679775  0.73002113    -0.03340
Br989      Br  0.35896457  0.80920282  0.75859439    -0.03040
H990        H  0.44066462  0.85186516  0.74397422     0.09120
H991        H  0.40073668  0.93724630  0.64874267     0.07140
Br992      Br  0.98150498  0.96088811  0.61454786    -0.03460
C993        C  0.19115233  0.53712766  0.68590613    -0.10100
C994        C  0.18484552  0.56876603  0.69351140     0.06100
C995        C  0.18574576  0.59662176  0.65707087    -0.03870
C996        C  0.18596214  0.58796979  0.61756248    -0.08320
C997        C  0.18374499  0.55136983  0.61259332     0.05210
C998        C  0.18276272  0.52393923  0.64843287    -0.03340
Br999      Br  0.16481584  0.96587960  0.64998957    -0.03040
H1000       H  0.19425557  0.01730393  0.71139519     0.09120
H1001       H  0.19044479  0.61121168  0.59038301     0.07140
Br1002     Br  0.20514203  0.65419213  0.65330709    -0.03460
C1003       C  0.14593285  0.52041403  0.81140362    -0.10100
C1004       C  0.17520413  0.54389575  0.77586200     0.06100
C1005       C  0.21774270  0.56714012  0.78297096    -0.03870
C1006       C  0.22838116  0.57171197  0.82304904    -0.08320
C1007       C  0.19877108  0.55218116  0.85700899     0.05210
C1008       C  0.15724313  0.52488686  0.85136690    -0.03340
Br1009     Br  0.11507410  0.49428451  0.89689765    -0.03040
H1010       H  0.11335478  0.49937747  0.80820355     0.09120
H1011       H  0.26023206  0.59103126  0.82814479     0.07140
Br1012     Br  0.26248429  0.59706085  0.73952433    -0.03460
C1013       C  0.08888836  0.53127569  0.70742472    -0.10100
C1014       C  0.11726202  0.52194778  0.72868186     0.06100
C1015       C  0.11109467  0.98167810  0.73088899    -0.03870
C1016       C  0.08387780  0.95829259  0.70583021    -0.08320
C1017       C  0.04771175  0.96047664  0.69926255     0.05210
C1018       C  0.05049660  0.49893742  0.69980422    -0.03340
Br1019     Br  0.00687445  0.51139081  0.69674883    -0.03040
H1020       H  0.09409217  0.56244772  0.70179779     0.09120
H1021       H  0.08464343  0.93112566  0.70207474     0.07140
Br1022     Br  0.13615084  0.95357651  0.76438519    -0.03460
C1023       C  0.21781204  0.75016936  0.70731188    -0.10100
C1024       C  0.17463887  0.72134708  0.71809697     0.06100
C1025       C  0.15169589  0.70550634  0.68337843    -0.03870
C1026       C  0.16707903  0.72757521  0.64318062    -0.08320
C1027       C  0.20990715  0.74920480  0.63367272     0.05210
C1028       C  0.23543964  0.75645620  0.66722594    -0.03340
Br1029     Br  0.28452613  0.75272341  0.66467272    -0.03040
H1030       H  0.23841002  0.76149368  0.73120099     0.09120
H1031       H  0.14661675  0.71806064  0.61847183     0.07140
Br1032     Br  0.11722579  0.64750813  0.68040837    -0.03460
C1033       C  0.18009575  0.69949125  0.83902944    -0.10100
C1034       C  0.17950859  0.72336323  0.80029506     0.06100
C1035       C  0.18305447  0.76205890  0.80155882    -0.03870
C1036       C  0.18764923  0.77561006  0.83923078    -0.08320
C1037       C  0.18727741  0.75100932  0.87733954     0.05210
C1038       C  0.18131546  0.71154389  0.87674225    -0.03340
Br1039     Br  0.17314503  0.67115064  0.92578035    -0.03040
H1040       H  0.17537481  0.66865576  0.84157445     0.09120
H1041       H  0.19119269  0.80582496  0.83861205     0.07140
Br1042     Br  0.17482126  0.79452990  0.75445073    -0.03460
C1043       C  0.12461375  0.62072396  0.78487807    -0.10100
C1044       C  0.15977319  0.66035873  0.77139692     0.06100
C1045       C  0.19687616  0.66239065  0.76111780    -0.03870
C1046       C  0.19387395  0.63003605  0.74621376    -0.08320
C1047       C  0.15576276  0.59245307  0.74776177     0.05210
C1048       C  0.12153207  0.58641206  0.77317457    -0.03340
Br1049     Br  0.06882888  0.53591748  0.79455661    -0.03040
H1050       H  0.09879266  0.61653533  0.80338526     0.09120
H1051       H  0.22229815  0.63496496  0.73335298     0.07140
Br1052     Br  0.25184022  0.70297187  0.77243006    -0.03250
C1053       C  0.48558417  0.71546969  0.64291093    -0.10100
C1054       C  0.51534037  0.75557698  0.62442936     0.06100
C1055       C  0.04318723  0.78258622  0.65060730    -0.03870
C1056       C  0.03847354  0.76830145  0.69434266    -0.08320
C1057       C  0.00963678  0.72630463  0.71271799     0.05210
C1058       C  0.48953182  0.70015982  0.68281960    -0.03340
Br1059     Br  0.48999800  0.65083094  0.68231454    -0.03040
H1060       H  0.46624625  0.69350233  0.62365226     0.09120
H1061       H  0.06035826  0.78880929  0.71304936     0.07140
Br1062     Br  0.09019665  0.83768080  0.62978014    -0.03460
C1063       C  0.47246922  0.72312311  0.86332916    -0.10100
C1064       C  0.00986175  0.75572602  0.87174634     0.06100
C1065       C  0.04422407  0.77575103  0.84171882    -0.03870
C1066       C  0.03953656  0.76320200  0.80336957    -0.08320
C1067       C  0.00306600  0.72658812  0.79619162     0.05210
C1068       C  0.46971915  0.70539554  0.82965725    -0.03340
Br1069     Br  0.42715416  0.64681526  0.84742056    -0.03040
H1070       H  0.44592310  0.70836696  0.88632555     0.09120
H1071       H  0.06679354  0.77886638  0.78149249     0.07140
Br1072     Br  0.09845881  0.81929286  0.85131733    -0.03460
C1073       C  0.06656954  0.70080616  0.73375026    -0.10100
C1074       C  0.04484371  0.70060206  0.76817882     0.06100
C1075       C  0.05730996  0.68964263  0.80809806    -0.03870
C1076       C  0.09274866  0.68634228  0.80914281    -0.08320
C1077       C  0.11124824  0.68731513  0.77190420     0.05210
C1078       C  0.08482322  0.67741847  0.74056404    -0.03340
Br1079     Br  0.04355356  0.61825109  0.74661961    -0.03040
H1080       H  0.06400924  0.71136066  0.70190328     0.09120
H1081       H  0.10501838  0.68293470  0.83850530     0.07140
Br1082     Br  0.02977681  0.67474368  0.86208367    -0.03460
C1083       C  0.46530314  0.62555456  0.77901634    -0.10100
C1084       C  0.46682279  0.66361039  0.76559079     0.06100
C1085       C  0.43033882  0.66243794  0.75216776    -0.03870
C1086       C  0.39912970  0.62656690  0.74200700    -0.08320
C1087       C  0.39802924  0.58802119  0.75150715     0.05210
C1088       C  0.43165145  0.58810660  0.77236050    -0.03340
Br1089     Br  0.43838984  0.54148535  0.79062663    -0.03040
H1090       H  0.49008210  0.62444060  0.79507028     0.09120
H1091       H  0.37473200  0.62957067  0.72690908     0.07140
Br1092     Br  0.42278651  0.70991552  0.74232115    -0.03460
C1093       C  0.00678997  0.20575289  0.26082345    -0.03430
C1094       C  0.65719538  0.19927475  0.26518664    -0.03430
C1095       C  0.65909448  0.05733466  0.23605032    -0.03430
C1096       C  0.51017618  0.41721789  0.20313490    -0.03430
C1097       C  0.84425960  0.39497111  0.22107870    -0.03430
C1098       C  0.85502948  0.04861599  0.25080302    -0.03430
O1099       O  0.80767619  0.05143101  0.44451390    -0.81080
O1100       O  0.78027375  0.08467113  0.07714697    -0.81100
O1101       O  0.82826165  0.16361522  0.44938254    -0.81110
O1102       O  0.74932210  0.46443239  0.01429865    -0.81050
O1103       O  0.83401861  0.13631294  0.00945383    -0.81180
O1104       O  0.75115762  0.46917311  0.44592731    -0.81100
O1105       O  0.78278514  0.03033522  0.06470816    -0.81080
O1106       O  0.79997640  0.09983848  0.40549416    -0.81120
C1107       C  0.81495320  0.07617294  0.41002151     1.08610
C1108       C  0.78889063  0.05620199  0.08786231     1.08490
C1109       C  0.85107629  0.16736452  0.47914157     1.08630
C1110       C  0.75371592  0.45136166  0.48171586     1.08510
O1111       O  0.68199922  0.47201069  0.46230034    -0.81080
O1112       O  0.77692645  0.15764626  0.03001737    -0.81160
O1113       O  0.71539723  0.07600072  0.42078101    -0.81090
O1114       O  0.70377538  0.01937149  0.07323380    -0.81070
O1115       O  0.70949014  0.07787431  0.04061011    -0.81130
O1116       O  0.73291317  0.03172568  0.40549511    -0.81090
O1117       O  0.66739419  0.45952310  0.02718416    -0.81050
O1118       O  0.74532239  0.14367322  0.47198831    -0.81120
Co1119     Co  0.74695700  0.01383503  0.46003014     1.51530
Co1120     Co  0.76951506  0.10474786  0.02092096     1.51690
Co1121     Co  0.76964459  0.11387178  0.44263655     1.51570
Co1122     Co  0.72864241  0.00025002  0.03861720     1.51470
O1123       O  0.75072059  0.05693791  0.49048980    -1.43010
C1124       C  0.65461895  0.44974502  0.49278159     1.08540
C1125       C  0.76081677  0.16842436  0.49901502     1.08630
C1126       C  0.71462321  0.05217755  0.39754336     1.08560
C1127       C  0.69621474  0.04806089  0.07192050     1.08540
O1128       O  0.97960946  0.28449660  0.40240075    -0.81080
O1129       O  0.54910608  0.29826485  0.05987324    -0.81100
O1130       O  0.61090521  0.33808814  0.43939645    -0.81110
O1131       O  0.91906162  0.21353372  0.00744292    -0.81050
O1132       O  0.60772841  0.32541290  0.00692373    -0.81180
O1133       O  0.90346524  0.24295973  0.45239187    -0.81100
O1134       O  0.98847678  0.24586444  0.05638875    -0.81080
O1135       O  0.52832926  0.27841748  0.43679997    -0.81120
C1136       C  0.50629781  0.27347866  0.40610498     1.08610
C1137       C  0.01776040  0.26624014  0.07823303     1.08490
C1138       C  0.62612232  0.32949223  0.47264707     1.08630
C1139       C  0.89402403  0.20966107  0.47929805     1.08510
O1140       O  0.91965460  0.32327411  0.46249424    -0.81080
O1141       O  0.58730917  0.38072483  0.01946385    -0.81160
O1142       O  0.55029251  0.35821454  0.39414474    -0.81090
O1143       O  0.97652978  0.31255670  0.06105145    -0.81070
O1144       O  0.54668977  0.35270264  0.04429697    -0.81130
O1145       O  0.99650062  0.36363908  0.40946289    -0.81090
O1146       O  0.90401482  0.27817525  0.02147981    -0.81050
O1147       O  0.59570678  0.39810942  0.45528721    -0.81120
Co1148     Co  0.95393497  0.30487098  0.43560096     1.51530
Co1149     Co  0.55283815  0.32296008  0.00195356     1.51690
Co1150     Co  0.55575807  0.33399056  0.45211739     1.51570
Co1151     Co  0.95158571  0.26661185  0.03180446     1.51470
O1152       O  0.49527082  0.31408476  0.48302813    -1.43010
C1153       C  0.89505888  0.30115201  0.49522913     1.08540
C1154       C  0.61027731  0.40937427  0.48898388     1.08630
C1155       C  0.52426605  0.36961433  0.38298019     1.08560
C1156       C  0.51264649  0.34200953  0.06576655     1.08540
O1157       O  0.78493902  0.30259454  0.41178749    -0.81080
O1158       O  0.76396211  0.34560405  0.06671744    -0.81100
O1159       O  0.77952463  0.40841372  0.46199643    -0.81110
O1160       O  0.83804635  0.29079869  0.03989252    -0.81050
O1161       O  0.72964916  0.37970246  0.01269451    -0.81180
O1162       O  0.83037793  0.30110271  0.47353333    -0.81100
O1163       O  0.82147981  0.35508067  0.03614976    -0.81080
O1164       O  0.80794525  0.36769128  0.41540513    -0.81120
C1165       C  0.80638748  0.34064043  0.39651553     1.08610
C1166       C  0.80321807  0.36190511  0.06327667     1.08490
C1167       C  0.75628214  0.41203166  0.48670563     1.08630
C1168       C  0.85326551  0.29849706  0.50318294     1.08510
O1169       O  0.76491433  0.22860292  0.45467407    -0.81080
O1170       O  0.66651823  0.29850300  0.00114896    -0.81160
O1171       O  0.72215105  0.31140745  0.40525612    -0.81090
O1172       O  0.76430317  0.27609199  0.07987953    -0.81070
O1173       O  0.70290492  0.26290187  0.06091785    -0.81130
O1174       O  0.70598850  0.25234513  0.44850032    -0.81090
O1175       O  0.76429027  0.23132312  0.01999169    -0.81050
O1176       O  0.69599448  0.35081248  0.44759007    -0.81120
Co1177     Co  0.76346991  0.27527820  0.46753159     1.51530
Co1178     Co  0.71751232  0.31997040  0.03259078     1.51690
Co1179     Co  0.75288588  0.35699871  0.43663797     1.51570
Co1180     Co  0.79205836  0.29797944  0.02243564     1.51470
O1181       O  0.75422732  0.31710541  0.48924138    -1.43010
C1182       C  0.76274463  0.21078227  0.49136225     1.08540
C1183       C  0.66408183  0.32488502  0.47280736     1.08630
C1184       C  0.70302912  0.27164527  0.41361640     1.08560
C1185       C  0.72595471  0.26131483  0.08935944     1.08540
C1186       C  0.85977758  0.08415164  0.17397231    -0.10100
C1187       C  0.83380071  0.05599543  0.21045883     0.06100
C1188       C  0.79133323  0.02817094  0.20410896    -0.03870
C1189       C  0.77835987  0.02639737  0.16370523    -0.08320
C1190       C  0.80537607  0.05373090  0.12871252     0.05210
C1191       C  0.84591636  0.08386903  0.13452911    -0.03340
Br1192     Br  0.88472204  0.12450656  0.08905136    -0.03040
H1193       H  0.89256668  0.10620376  0.17458565     0.09120
H1194       H  0.74664626  0.00395074  0.15966744     0.07140
Br1195     Br  0.74837221  0.99301655  0.24831781    -0.03460
C1196       C  0.82487615  0.07516445  0.29690124    -0.10100
C1197       C  0.83388059  0.04388159  0.29468371     0.06100
C1198       C  0.83756813  0.02303670  0.33470543    -0.03870
C1199       C  0.83174162  0.03400575  0.37168485    -0.08320
C1200       C  0.82760686  0.06863109  0.37125979     0.05210
C1201       C  0.82789482  0.09131931  0.33235427    -0.03340
Br1202     Br  0.83844583  0.14793719  0.32402923    -0.03040
H1203       H  0.82325937  0.09279401  0.26901057     0.09120
H1204       H  0.83159541  0.01585805  0.40121276     0.07140
Br1205     Br  0.84877433  0.97832271  0.34646253    -0.03460
C1206       C  0.82284846  0.34765300  0.16950444    -0.10100
C1207       C  0.81494252  0.37461730  0.18663225     0.06100
C1208       C  0.80155527  0.39776130  0.15759536    -0.03870
C1209       C  0.80726751  0.40125524  0.11493052    -0.08320
C1210       C  0.82321175  0.37989447  0.09902593     0.05210
C1211       C  0.83466219  0.35612997  0.12724806    -0.03340
Br1212     Br  0.87144145  0.33970522  0.10972157    -0.03040
H1213       H  0.83086354  0.32764689  0.18922448     0.09120
H1214       H  0.79416700  0.41645248  0.09406120     0.07140
Br1215     Br  0.76564718  0.41677339  0.17129742    -0.03460
C1216       C  0.85531745  0.38913930  0.33711324    -0.10100
C1217       C  0.82115244  0.35061489  0.35333535     0.06100
C1218       C  0.79972039  0.32163451  0.32721870    -0.03870
C1219       C  0.80322472  0.33606140  0.28469053    -0.08320
C1220       C  0.83682628  0.37576446  0.26754763     0.05210
C1221       C  0.86604242  0.39985245  0.29515204    -0.03340
Br1222     Br  0.92111365  0.44789175  0.27922154    -0.03040
H1223       H  0.87478134  0.40986799  0.35729471     0.09120
H1224       H  0.78364940  0.31512862  0.26486751     0.07140
Br1225     Br  0.77969997  0.26331698  0.34554505    -0.03460
C1226       C  0.87762444  0.97462219  0.20467615    -0.10100
C1227       C  0.84468060  0.43552668  0.22349758     0.06100
C1228       C  0.81417539  0.43498608  0.24959818    -0.03870
C1229       C  0.82139493  0.97135573  0.26007055    -0.08320
C1230       C  0.85644469  0.01039164  0.24419232     0.05210
C1231       C  0.88281891  0.01120060  0.21298848    -0.03340
Br1232     Br  0.42670515  0.05784344  0.17700448    -0.03040
H1233       H  0.90054722  0.97807110  0.18331219     0.09120
H1234       H  0.79846112  0.96852256  0.28151480     0.07140
Br1235     Br  0.76110353  0.38711328  0.27414028    -0.03460
C1236       C  0.98796352  0.35560098  0.16935939    -0.10100
C1237       C  0.51605081  0.39837221  0.16764794     0.06100
C1238       C  0.54384228  0.42227468  0.13011393    -0.03870
C1239       C  0.54365159  0.40228859  0.09896548    -0.08320
C1240       C  0.51422545  0.36054993  0.10099492     0.05210
C1241       C  0.98572619  0.33691275  0.13655355    -0.03340
Br1242     Br  0.94163641  0.27896683  0.14374451    -0.03040
H1243       H  0.96670810  0.33612875  0.19639366     0.09120
H1244       H  0.56476781  0.42026939  0.07123737     0.07140
Br1245     Br  0.58014151  0.48241030  0.11172944    -0.03460
C1246       C  0.50310084  0.41780041  0.28028325    -0.10100
C1247       C  0.51226152  0.39973937  0.25082302     0.06100
C1248       C  0.52663716  0.37230805  0.26691092    -0.03870
C1249       C  0.53124987  0.36451238  0.30946519    -0.08320
C1250       C  0.52156251  0.38228951  0.33790072     0.05210
C1251       C  0.50663574  0.40881735  0.32273820    -0.03340
Br1252     Br  0.49198528  0.43502761  0.35817542    -0.03040
H1253       H  0.49341523  0.43999113  0.26971673     0.09120
H1254       H  0.54247683  0.34394570  0.32053555     0.07140
Br1255     Br  0.54568887  0.34756428  0.23453631    -0.03460
C1256       C  0.93490809  0.37498125  0.22594002    -0.10100
C1257       C  0.46630745  0.41065578  0.19952539     0.06100
C1258       C  0.95187889  0.42936726  0.16731229    -0.03870
C1259       C  0.91200794  0.42334224  0.17331591    -0.08320
C1260       C  0.88611996  0.39769184  0.20985302     0.05210
C1261       C  0.89541094  0.36679705  0.23002158    -0.03340
Br1262     Br  0.85896399  0.30920216  0.25859485    -0.03040
H1263       H  0.94066403  0.35186429  0.24397458     0.09120
H1264       H  0.90073624  0.43724555  0.14874304     0.07140
Br1265     Br  0.48150474  0.46088799  0.11454815    -0.03460
C1266       C  0.69115267  0.03712791  0.18590570    -0.10100
C1267       C  0.68484576  0.06876624  0.19351092     0.06100
C1268       C  0.68574583  0.09662183  0.15707035    -0.03870
C1269       C  0.68596228  0.08796983  0.11756199    -0.08320
C1270       C  0.68374522  0.05136989  0.11259289     0.05210
C1271       C  0.68276303  0.02393939  0.14843248    -0.03340
Br1272     Br  0.66481569  0.46587932  0.14998933    -0.03040
H1273       H  0.69425521  0.51730308  0.21139532     0.09120
H1274       H  0.69044478  0.11121163  0.09038249     0.07140
Br1275     Br  0.70514127  0.15419202  0.15330647    -0.03460
C1276       C  0.64593314  0.02041418  0.31140317    -0.10100
C1277       C  0.67520442  0.04389602  0.27586157     0.06100
C1278       C  0.71774297  0.06714053  0.28297058    -0.03870
C1279       C  0.72838132  0.07171229  0.32304868    -0.08320
C1280       C  0.69877129  0.05218132  0.35700865     0.05210
C1281       C  0.65724337  0.02488693  0.35136648    -0.03340
Br1282     Br  0.61507431  0.99428435  0.39689719    -0.03040
H1283       H  0.61335508  0.99937753  0.30820308     0.09120
H1284       H  0.76023258  0.09103192  0.32814451     0.07140
Br1285     Br  0.76248459  0.09706140  0.23952397    -0.03460
C1286       C  0.58888860  0.03127584  0.20742431    -0.10100
C1287       C  0.61726230  0.02194797  0.22868141     0.06100
C1288       C  0.61109451  0.48167757  0.23088932    -0.03870
C1289       C  0.58387773  0.45829226  0.20583036    -0.08320
C1290       C  0.54771173  0.46047643  0.19926275     0.05210
C1291       C  0.55049681  0.99893754  0.19980392    -0.03340
Br1292     Br  0.50687463  0.01139090  0.19674871    -0.03040
H1293       H  0.59409240  0.06244788  0.20179736     0.09120
H1294       H  0.58464331  0.43112532  0.20207479     0.07140
Br1295     Br  0.63615053  0.45357581  0.26438550    -0.03460
C1296       C  0.71781202  0.25016921  0.20731210    -0.10100
C1297       C  0.67463881  0.22134712  0.21809718     0.06100
C1298       C  0.65169577  0.20550659  0.18337858    -0.03870
C1299       C  0.66707901  0.22757554  0.14318080    -0.08320
C1300       C  0.70990712  0.24920483  0.13367292     0.05210
C1301       C  0.73543958  0.25645598  0.16722616    -0.03340
Br1302     Br  0.78452589  0.25272287  0.16467292    -0.03040
H1303       H  0.73841003  0.26149338  0.23120122     0.09120
H1304       H  0.64661671  0.21806118  0.11847199     0.07140
Br1305     Br  0.61722549  0.14750843  0.18040828    -0.03460
C1306       C  0.68009570  0.19949097  0.33902964    -0.10100
C1307       C  0.67950860  0.22336304  0.30029530     0.06100
C1308       C  0.68305450  0.26205870  0.30155915    -0.03870
C1309       C  0.68764920  0.27560976  0.33923116    -0.08320
C1310       C  0.68727734  0.25100894  0.37733988     0.05210
C1311       C  0.68131540  0.21154353  0.37674250    -0.03340
Br1312     Br  0.67314499  0.17115021  0.42578053    -0.03040
H1313       H  0.67537475  0.16865548  0.34157457     0.09120
H1314       H  0.69119266  0.30582465  0.33861250     0.07140
Br1315     Br  0.67482140  0.29452984  0.25445111    -0.03460
C1316       C  0.62461397  0.12072388  0.28487806    -0.10100
C1317       C  0.65977333  0.16035870  0.27139694     0.06100
C1318       C  0.69687630  0.16239074  0.26111756    -0.03870
C1319       C  0.69387409  0.13003630  0.24621318    -0.08320
C1320       C  0.65576295  0.09245324  0.24776131     0.05210
C1321       C  0.62153229  0.08641210  0.27317429    -0.03340
Br1322     Br  0.56882914  0.03591744  0.29455629    -0.03040
H1323       H  0.59879295  0.11653515  0.30338544     0.09120
H1324       H  0.72229827  0.13496535  0.23335217     0.07140
Br1325     Br  0.75184029  0.20297166  0.27243027    -0.03250
C1326       C  0.98558440  0.21546958  0.14291108    -0.10100
C1327       C  0.01534052  0.25557692  0.12442954     0.06100
C1328       C  0.54318732  0.28258609  0.15060737    -0.03870
C1329       C  0.53847360  0.26830129  0.19434273    -0.08320
C1330       C  0.50963693  0.22630444  0.21271802     0.05210
C1331       C  0.98953199  0.20015973  0.18281978    -0.03340
Br1332     Br  0.98999830  0.15083089  0.18231479    -0.03040
H1333       H  0.96624656  0.19350222  0.12365238     0.09120
H1334       H  0.56035824  0.28880916  0.21304946     0.07140
Br1335     Br  0.59019663  0.33768075  0.12978028    -0.03460
C1336       C  0.97246904  0.22312291  0.36332940    -0.10100
C1337       C  0.50986161  0.25572587  0.37174634     0.06100
C1338       C  0.54422399  0.27575086  0.34171888    -0.03870
C1339       C  0.53953653  0.26320184  0.30336963    -0.08320
C1340       C  0.50306599  0.22658797  0.29619163     0.05210
C1341       C  0.96971901  0.20539538  0.32965746    -0.03340
Br1342     Br  0.92715409  0.14681508  0.34742073    -0.03040
H1343       H  0.94592288  0.20836675  0.38632574     0.09120
H1344       H  0.56679355  0.27886620  0.28149260     0.07140
Br1345     Br  0.59845871  0.31929265  0.35131747    -0.03460
C1346       C  0.56656951  0.20080580  0.23375056    -0.10100
C1347       C  0.54484369  0.20060181  0.26817903     0.06100
C1348       C  0.55730993  0.18964248  0.30809832    -0.03870
C1349       C  0.59274867  0.18634219  0.30914313    -0.08320
C1350       C  0.61124822  0.18731488  0.27190456     0.05210
C1351       C  0.58482312  0.17741805  0.24056448    -0.03340
Br1352     Br  0.54355349  0.11825064  0.24662027    -0.03040
H1353       H  0.56400940  0.21136041  0.20190354     0.09120
H1354       H  0.60501844  0.18293475  0.33850562     0.07140
Br1355     Br  0.52977676  0.17474362  0.36208389    -0.03460
C1356       C  0.96530303  0.12555446  0.27901642    -0.10100
C1357       C  0.96682272  0.16361032  0.26559094     0.06100
C1358       C  0.93033880  0.16243793  0.25216783    -0.03870
C1359       C  0.89912971  0.12656694  0.24200693    -0.08320
C1360       C  0.89802925  0.08802122  0.25150697     0.05210
C1361       C  0.93165139  0.08810656  0.27236040    -0.03340
Br1362     Br  0.93838977  0.04148529  0.29062637    -0.03040
H1363       H  0.99008195  0.12444046  0.29507041     0.09120
H1364       H  0.87473203  0.12957076  0.22690901     0.07140
Br1365     Br  0.92278657  0.20991555  0.24232125    -0.03460
C1366       C  0.00678941  0.20575249  0.76082380    -0.03430
C1367       C  0.65719492  0.19927506  0.76518675    -0.03430
C1368       C  0.65909481  0.05733556  0.73604977    -0.03430
C1369       C  0.51017585  0.41721743  0.70313479    -0.03430
C1370       C  0.84425980  0.39497167  0.72107863    -0.03430
C1371       C  0.85502913  0.04861528  0.75080339    -0.03430
O1372       O  0.80767590  0.05143102  0.94451378    -0.81080
O1373       O  0.78027379  0.08467072  0.57714717    -0.81100
O1374       O  0.82826175  0.16361552  0.94938221    -0.81110
O1375       O  0.74932248  0.46443247  0.51429868    -0.81050
O1376       O  0.83401870  0.13631250  0.50945402    -0.81180
O1377       O  0.75115825  0.46917355  0.94592722    -0.81100
O1378       O  0.78278490  0.03033466  0.56470834    -0.81080
O1379       O  0.79997638  0.09983863  0.90549395    -0.81120
C1380       C  0.81495298  0.07617292  0.91002136     1.08610
C1381       C  0.78889058  0.05620149  0.58786248     1.08490
C1382       C  0.85107629  0.16736490  0.97914133     1.08630
C1383       C  0.75371602  0.45136184  0.98171585     1.08510
O1384       O  0.68199963  0.47201065  0.96230033    -0.81080
O1385       O  0.77692659  0.15764600  0.53001748    -0.81160
O1386       O  0.71539725  0.07600111  0.92078083    -0.81090
O1387       O  0.70377533  0.01937139  0.57323399    -0.81070
O1388       O  0.70949026  0.07787416  0.54061001    -0.81130
O1389       O  0.73291295  0.03172594  0.90549486    -0.81090
O1390       O  0.66739431  0.45952255  0.52718434    -0.81050
O1391       O  0.74532252  0.14367361  0.97198804    -0.81120
Co1392     Co  0.74695670  0.01383521  0.96002995     1.51530
Co1393     Co  0.76951519  0.10474757  0.52092111     1.51690
Co1394     Co  0.76964467  0.11387208  0.94263633     1.51570
Co1395     Co  0.72864212  0.00024973  0.53861737     1.51470
O1396       O  0.75072058  0.05693821  0.99048964    -1.43010
C1397       C  0.65461910  0.44974530  0.99278144     1.08540
C1398       C  0.76081680  0.16842470  0.99901481     1.08630
C1399       C  0.71462311  0.05217795  0.89754313     1.08560
C1400       C  0.69621481  0.04806089  0.57192050     1.08540
O1401       O  0.97960939  0.28449692  0.90240058    -0.81080
O1402       O  0.54910611  0.29826437  0.55987334    -0.81100
O1403       O  0.61090509  0.33808811  0.93939641    -0.81110
O1404       O  0.91906156  0.21353331  0.50744320    -0.81050
O1405       O  0.60772835  0.32541244  0.50692376    -0.81180
O1406       O  0.90346522  0.24296016  0.95239167    -0.81100
O1407       O  0.98847670  0.24586402  0.55638898    -0.81080
O1408       O  0.52832902  0.27841759  0.93679997    -0.81120
C1409       C  0.50629752  0.27347876  0.90610501     1.08610
C1410       C  0.01776029  0.26623970  0.57823330     1.08490
C1411       C  0.62612229  0.32949244  0.97264708     1.08630
C1412       C  0.89402405  0.20966148  0.97929781     1.08510
O1413       O  0.91965475  0.32327461  0.96249398    -0.81080
O1414       O  0.58730923  0.38072435  0.51946401    -0.81160
O1415       O  0.55029251  0.35821469  0.89414463    -0.81090
O1416       O  0.97652974  0.31255630  0.56105168    -0.81070
O1417       O  0.54668978  0.35270215  0.54429711    -0.81130
O1418       O  0.99650076  0.36363945  0.90946265    -0.81090
O1419       O  0.90401473  0.27817482  0.52148011    -0.81050
O1420       O  0.59570701  0.39810961  0.95528703    -0.81120
Co1421     Co  0.95393503  0.30487139  0.93560074     1.51530
Co1422     Co  0.55283811  0.32295962  0.50195366     1.51690
Co1423     Co  0.55575804  0.33399073  0.95211731     1.51570
Co1424     Co  0.95158564  0.26661144  0.53180472     1.51470
O1425       O  0.49527085  0.31408514  0.98302802    -1.43010
C1426       C  0.89505899  0.30115247  0.99522884     1.08540
C1427       C  0.61027741  0.40937459  0.98898370     1.08630
C1428       C  0.52426608  0.36961453  0.88298009     1.08560
C1429       C  0.51264650  0.34200909  0.56576664     1.08540
O1430       O  0.78493890  0.30259483  0.91178732    -0.81080
O1431       O  0.76396201  0.34560386  0.56671750    -0.81100
O1432       O  0.77952468  0.40841389  0.96199647    -0.81110
O1433       O  0.83804618  0.29079822  0.53989281    -0.81050
O1434       O  0.72964912  0.37970228  0.51269447    -0.81180
O1435       O  0.83037798  0.30110303  0.97353306    -0.81100
O1436       O  0.82147971  0.35508028  0.53615001    -0.81080
O1437       O  0.80794519  0.36769155  0.91540505    -0.81120
C1438       C  0.80638738  0.34064073  0.89651540     1.08610
C1439       C  0.80321796  0.36190483  0.56327681     1.08490
C1440       C  0.75628220  0.41203183  0.98670567     1.08630
C1441       C  0.85326563  0.29849748  0.00318264     1.08510
O1442       O  0.76491431  0.22860323  0.95467385    -0.81080
O1443       O  0.66651824  0.29850279  0.50114889    -0.81160
O1444       O  0.72215095  0.31140771  0.90525615    -0.81090
O1445       O  0.76430288  0.27609164  0.57987980    -0.81070
O1446       O  0.70290477  0.26290169  0.56091786    -0.81130
O1447       O  0.70598845  0.25234539  0.94850034    -0.81090
O1448       O  0.76429009  0.23132272  0.51999193    -0.81050
O1449       O  0.69599446  0.35081272  0.94759015    -0.81120
Co1450     Co  0.76346991  0.27527849  0.96753143     1.51530
Co1451     Co  0.71751226  0.31997021  0.53259077     1.51690
Co1452     Co  0.75288585  0.35699896  0.93663797     1.51570
Co1453     Co  0.79205820  0.29797904  0.52243590     1.51470
O1454       O  0.75422733  0.31710567  0.98924130    -1.43010
C1455       C  0.76274470  0.21078262  0.99136202     1.08540
C1456       C  0.66408181  0.32488523  0.97280743     1.08630
C1457       C  0.70302898  0.27164553  0.91361646     1.08560
C1458       C  0.72595443  0.26131469  0.58935960     1.08540
C1459       C  0.85977784  0.08415035  0.67397238    -0.10100
C1460       C  0.83380067  0.05599476  0.71045900     0.06100
C1461       C  0.79133306  0.02817079  0.70410919    -0.03870
C1462       C  0.77835966  0.02639725  0.66370549    -0.08320
C1463       C  0.80537602  0.05373026  0.62871269     0.05210
C1464       C  0.84591665  0.08386774  0.63452914    -0.03340
Br1465     Br  0.88472267  0.12450439  0.58905119    -0.03040
H1466       H  0.89256701  0.10620215  0.67458583     0.09120
H1467       H  0.74664592  0.00395101  0.65966777     0.07140
Br1468     Br  0.74837199  0.99301709  0.74831814    -0.03460
C1469       C  0.82487559  0.07516385  0.79690118    -0.10100
C1470       C  0.83387991  0.04388085  0.79468386     0.06100
C1471       C  0.83756700  0.02303577  0.83470567    -0.03870
C1472       C  0.83174076  0.03400516  0.87168496    -0.08320
C1473       C  0.82760640  0.06863077  0.87125971     0.05210
C1474       C  0.82789439  0.09131890  0.83235411    -0.03340
Br1475     Br  0.83844608  0.14793703  0.82402887    -0.03040
H1476       H  0.82325886  0.09279331  0.76901037     0.09120
H1477       H  0.83159433  0.01585742  0.90121294     0.07140
Br1478     Br  0.84877169  0.97832073  0.84646310    -0.03460
C1479       C  0.82284846  0.34765323  0.66950467    -0.10100
C1480       C  0.81494273  0.37461780  0.68663223     0.06100
C1481       C  0.80155553  0.39776176  0.65759521    -0.03870
C1482       C  0.80726752  0.40125528  0.61493042    -0.08320
C1483       C  0.82321163  0.37989430  0.59902603     0.05210
C1484       C  0.83466205  0.35612988  0.62724831    -0.03340
Br1485     Br  0.87144104  0.33970473  0.60972202    -0.03040
H1486       H  0.83086341  0.32764710  0.68922485     0.09120
H1487       H  0.79416703  0.41645247  0.59406100     0.07140
Br1488     Br  0.76564786  0.41677438  0.67129712    -0.03460
C1489       C  0.85531742  0.38913964  0.83711318    -0.10100
C1490       C  0.82115233  0.35061526  0.85333521     0.06100
C1491       C  0.79972024  0.32163496  0.82721850    -0.03870
C1492       C  0.80322471  0.33606191  0.78469033    -0.08320
C1493       C  0.83682638  0.37576494  0.76754752     0.05210
C1494       C  0.86604248  0.39985283  0.79515199    -0.03340
Br1495     Br  0.92111378  0.44789196  0.77922153    -0.03040
H1496       H  0.87478132  0.40986827  0.85729470     0.09120
H1497       H  0.78364941  0.31512919  0.76486726     0.07140
Br1498     Br  0.77969958  0.26331738  0.84554478    -0.03460
C1499       C  0.87762429  0.97462167  0.70467651    -0.10100
C1500       C  0.84468083  0.43552728  0.72349752     0.06100
C1501       C  0.81417567  0.43498668  0.74959820    -0.03870
C1502       C  0.82139429  0.97135506  0.76007038    -0.08320
C1503       C  0.85644441  0.01039093  0.74419282     0.05210
C1504       C  0.88281906  0.01119998  0.71298940    -0.03340
Br1505     Br  0.42670693  0.05784307  0.67700714    -0.03040
H1506       H  0.90054720  0.97807062  0.68331271     0.09120
H1507       H  0.79846020  0.96852187  0.78151426     0.07140
Br1508     Br  0.76110372  0.38711391  0.77414019    -0.03460
C1509       C  0.98796340  0.35560106  0.66935929    -0.10100
C1510       C  0.51605060  0.39837176  0.66764793     0.06100
C1511       C  0.54384216  0.42227422  0.63011398    -0.03870
C1512       C  0.54365161  0.40228812  0.59896560    -0.08320
C1513       C  0.51422545  0.36054947  0.60099501     0.05210
C1514       C  0.98572611  0.33691267  0.63655359    -0.03340
Br1515     Br  0.94163640  0.27896672  0.64374475    -0.03040
H1516       H  0.96670798  0.33612891  0.69639358     0.09120
H1517       H  0.56476789  0.42026892  0.57123753     0.07140
Br1518     Br  0.58014129  0.48240985  0.61172948    -0.03460
C1519       C  0.50310034  0.41779998  0.78028310    -0.10100
C1520       C  0.51226108  0.39973892  0.75082294     0.06100
C1521       C  0.52663684  0.37230772  0.76691091    -0.03870
C1522       C  0.53124970  0.36451226  0.80946516    -0.08320
C1523       C  0.52156235  0.38228946  0.83790062     0.05210
C1524       C  0.50663537  0.40881711  0.82273804    -0.03340
Br1525     Br  0.49198485  0.43502742  0.85817515    -0.03040
H1526       H  0.49341466  0.43999063  0.76971651     0.09120
H1527       H  0.54247683  0.34394575  0.82053557     0.07140
Br1528     Br  0.54568863  0.34756394  0.73453640    -0.03460
C1529       C  0.93490819  0.37498165  0.72593983    -0.10100
C1530       C  0.46630710  0.41065529  0.69952515     0.06100
C1531       C  0.95187904  0.42936772  0.66731216    -0.03870
C1532       C  0.91200812  0.42334277  0.67331584    -0.08320
C1533       C  0.88612014  0.39769237  0.70985294     0.05210
C1534       C  0.89541111  0.36679757  0.73002151    -0.03340
Br1535     Br  0.85896424  0.30920278  0.75859515    -0.03040
H1536       H  0.94066412  0.35186467  0.74397436     0.09120
H1537       H  0.90073641  0.43724607  0.64874297     0.07140
Br1538     Br  0.48150440  0.46088729  0.61454782    -0.03460
C1539       C  0.69115343  0.03712902  0.68590548    -0.10100
C1540       C  0.68484621  0.06876722  0.69351046     0.06100
C1541       C  0.68574583  0.09662240  0.65706972    -0.03870
C1542       C  0.68596238  0.08797018  0.61756150    -0.08320
C1543       C  0.68374545  0.05137023  0.61259275     0.05210
C1544       C  0.68276347  0.02394004  0.64843249    -0.03340
Br1545     Br  0.66481555  0.46587883  0.64998917    -0.03040
H1546       H  0.69425418  0.51730201  0.71139549     0.09120
H1547       H  0.69044457  0.11121170  0.59038185     0.07140
Br1548     Br  0.70513958  0.15419226  0.65330544    -0.03460
C1549       C  0.64593348  0.02041483  0.81140259    -0.10100
C1550       C  0.67520481  0.04389707  0.77586108     0.06100
C1551       C  0.71774332  0.06714196  0.78297028    -0.03870
C1552       C  0.72838125  0.07171345  0.82304845    -0.08320
C1553       C  0.69877130  0.05218195  0.85700837     0.05210
C1554       C  0.65724350  0.02488724  0.85136599    -0.03340
Br1555     Br  0.61507438  0.99428382  0.89689657    -0.03040
H1556       H  0.61335543  0.99937794  0.80820237     0.09120
H1557       H  0.76023359  0.09103406  0.82814459     0.07140
Br1558     Br  0.76248516  0.09706329  0.73952390    -0.03460
C1559       C  0.58888884  0.03127646  0.70742382    -0.10100
C1560       C  0.61726271  0.02194876  0.72868079     0.06100
C1561       C  0.61109385  0.48167694  0.73088982    -0.03870
C1562       C  0.58387739  0.45829184  0.70583051    -0.08320
C1563       C  0.54771139  0.46047598  0.69926271     0.05210
C1564       C  0.55049700  0.99893802  0.69980369    -0.03340
Br1565     Br  0.50687469  0.01139119  0.69674877    -0.03040
H1566       H  0.59409255  0.06244847  0.70179683     0.09120
H1567       H  0.58464307  0.43112497  0.70207489     0.07140
Br1568     Br  0.63614971  0.45357513  0.76438623    -0.03460
C1569       C  0.71781144  0.25016955  0.70731223    -0.10100
C1570       C  0.67463819  0.22134760  0.71809727     0.06100
C1571       C  0.65169512  0.20550724  0.68337859    -0.03870
C1572       C  0.66707859  0.22757616  0.64318081    -0.08320
C1573       C  0.70990672  0.24920506  0.63367304     0.05210
C1574       C  0.73543905  0.25645614  0.66722637    -0.03340
Br1575     Br  0.78452523  0.25272280  0.66467340    -0.03040
H1576       H  0.73840942  0.26149366  0.73120138     0.09120
H1577       H  0.64661635  0.21806196  0.61847193     0.07140
Br1578     Br  0.61722434  0.14750912  0.68040815    -0.03460
C1579       C  0.68009533  0.19949124  0.83902968    -0.10100
C1580       C  0.67950818  0.22336334  0.80029538     0.06100
C1581       C  0.68305403  0.26205897  0.80155930    -0.03870
C1582       C  0.68764880  0.27561000  0.83923133    -0.08320
C1583       C  0.68727704  0.25100918  0.87733999     0.05210
C1584       C  0.68131510  0.21154377  0.87674256    -0.03340
Br1585     Br  0.67314479  0.17115046  0.92578055    -0.03040
H1586       H  0.67537438  0.16865576  0.84157455     0.09120
H1587       H  0.69119226  0.30582489  0.83861272     0.07140
Br1588     Br  0.67482088  0.29453018  0.75445138    -0.03460
C1589       C  0.62461400  0.12072426  0.78487797    -0.10100
C1590       C  0.65977317  0.16035918  0.77139680     0.06100
C1591       C  0.69687619  0.16239150  0.76111703    -0.03870
C1592       C  0.69387406  0.13003730  0.74621223    -0.08320
C1593       C  0.65576305  0.09245404  0.74776066     0.05210
C1594       C  0.62153244  0.08641264  0.77317394    -0.03340
Br1595     Br  0.56882946  0.03591779  0.79455600    -0.03040
H1596       H  0.59879303  0.11653532  0.80338562     0.09120
H1597       H  0.72229822  0.13496663  0.73335080     0.07140
Br1598     Br  0.75184008  0.20297217  0.77243022    -0.03250
C1599       C  0.98558413  0.21546918  0.64291137    -0.10100
C1600       C  0.01534030  0.25557650  0.62442982     0.06100
C1601       C  0.54318724  0.28258580  0.65060749    -0.03870
C1602       C  0.53847340  0.26830108  0.69434287    -0.08320
C1603       C  0.50963645  0.22630432  0.71271824     0.05210
C1604       C  0.98953166  0.20015936  0.68282011    -0.03340
Br1605     Br  0.98999834  0.15083075  0.68231520    -0.03040
H1606       H  0.96624633  0.19350179  0.62365267     0.09120
H1607       H  0.56035815  0.28880890  0.71304957     0.07140
Br1608     Br  0.59019681  0.33768027  0.62978033    -0.03460
C1609       C  0.97246861  0.22312293  0.86332948    -0.10100
C1610       C  0.50986116  0.25572583  0.87174642     0.06100
C1611       C  0.54422351  0.27575072  0.84171896    -0.03870
C1612       C  0.53953595  0.26320171  0.80336971    -0.08320
C1613       C  0.50306537  0.22658785  0.79619177     0.05210
C1614       C  0.96971851  0.20539525  0.82965763    -0.03340
Br1615     Br  0.92715375  0.14681493  0.84742113    -0.03040
H1616       H  0.94592249  0.20836686  0.88632586     0.09120
H1617       H  0.56679296  0.27886601  0.78149268     0.07140
Br1618     Br  0.59845834  0.31929233  0.85131756    -0.03460
C1619       C  0.56656887  0.20080550  0.73375099    -0.10100
C1620       C  0.54484309  0.20060166  0.76817938     0.06100
C1621       C  0.55730944  0.18964255  0.80809871    -0.03870
C1622       C  0.59274827  0.18634238  0.80914352    -0.08320
C1623       C  0.61124768  0.18731487  0.77190496     0.05210
C1624       C  0.58482241  0.17741770  0.74056508    -0.03340
Br1625     Br  0.54355274  0.11825020  0.74662136    -0.03040
H1626       H  0.56400899  0.21136026  0.70190396     0.09120
H1627       H  0.60501817  0.18293521  0.83850599     0.07140
Br1628     Br  0.52977637  0.17474386  0.86208431    -0.03460
C1629       C  0.96530245  0.12555401  0.77901715    -0.10100
C1630       C  0.96682216  0.16360985  0.76559129     0.06100
C1631       C  0.93033826  0.16243734  0.75216794    -0.03870
C1632       C  0.89912932  0.12656629  0.74200694    -0.08320
C1633       C  0.89802881  0.08802056  0.75150750     0.05210
C1634       C  0.93165075  0.08810598  0.77236144    -0.03340
Br1635     Br  0.93838836  0.04148443  0.79062907    -0.03040
H1636       H  0.99008123  0.12444010  0.79507152     0.09120
H1637       H  0.87473170  0.12957000  0.72690871     0.07140
Br1638     Br  0.92278595  0.20991491  0.74232103    -0.03460
C1639       C  0.00678945  0.70575307  0.26082325    -0.03430
C1640       C  0.65719523  0.69927500  0.26518629    -0.03430
C1641       C  0.65909481  0.55733498  0.23605044    -0.03430
C1642       C  0.51017602  0.91721761  0.20313456    -0.03430
C1643       C  0.84426002  0.89497183  0.22107832    -0.03430
C1644       C  0.85502956  0.54861527  0.25080364    -0.03430
O1645       O  0.80767604  0.55143086  0.44451418    -0.81080
O1646       O  0.78027405  0.58467099  0.07714739    -0.81100
O1647       O  0.82826161  0.66361530  0.44938237    -0.81110
O1648       O  0.74932274  0.96443284  0.01429818    -0.81050
O1649       O  0.83401887  0.63631278  0.00945404    -0.81180
O1650       O  0.75115785  0.96917328  0.44592694    -0.81100
O1651       O  0.78278495  0.53033480  0.06470858    -0.81080
O1652       O  0.79997632  0.59983829  0.40549429    -0.81120
C1653       C  0.81495307  0.57617270  0.41002174     1.08610
C1654       C  0.78889068  0.55620164  0.08786274     1.08490
C1655       C  0.85107619  0.66736476  0.47914146     1.08630
C1656       C  0.75371585  0.95136168  0.48171553     1.08510
O1657       O  0.68199935  0.97201064  0.46230005    -0.81080
O1658       O  0.77692678  0.65764635  0.03001747    -0.81160
O1659       O  0.71539714  0.57600060  0.42078122    -0.81090
O1660       O  0.70377545  0.51937162  0.07323420    -0.81070
O1661       O  0.70949047  0.57787449  0.04061043    -0.81130
O1662       O  0.73291303  0.53172553  0.40549537    -0.81090
O1663       O  0.66739447  0.95952261  0.02718400    -0.81050
O1664       O  0.74532235  0.64367331  0.47198817    -0.81120
Co1665     Co  0.74695685  0.51383496  0.46003042     1.51530
Co1666     Co  0.76951536  0.60474782  0.02092132     1.51690
Co1667     Co  0.76964455  0.61387176  0.44263658     1.51570
Co1668     Co  0.72864217  0.50024992  0.03861760     1.51470
O1669       O  0.75072053  0.55693797  0.49048998    -1.43010
C1670       C  0.65461894  0.94974515  0.49278123     1.08540
C1671       C  0.76081667  0.66842451  0.49901483     1.08630
C1672       C  0.71462307  0.55217740  0.39754361     1.08560
C1673       C  0.69621496  0.54806111  0.07192084     1.08540
O1674       O  0.97960930  0.78449681  0.40240048    -0.81080
O1675       O  0.54910604  0.79826451  0.05987298    -0.81100
O1676       O  0.61090504  0.83808817  0.43939622    -0.81110
O1677       O  0.91906169  0.71353369  0.00744307    -0.81050
O1678       O  0.60772835  0.82541256  0.00692343    -0.81180
O1679       O  0.90346513  0.74296000  0.45239164    -0.81100
O1680       O  0.98847701  0.74586460  0.05638846    -0.81080
O1681       O  0.52832910  0.77841754  0.43679984    -0.81120
C1682       C  0.50629768  0.77347869  0.40610482     1.08610
C1683       C  0.01776052  0.76624023  0.07823286     1.08490
C1684       C  0.62612215  0.82949232  0.47264687     1.08630
C1685       C  0.89402394  0.70966137  0.47929787     1.08510
O1686       O  0.91965458  0.82327448  0.46249379    -0.81080
O1687       O  0.58730931  0.88072453  0.01946366    -0.81160
O1688       O  0.55029239  0.85821458  0.39414444    -0.81090
O1689       O  0.97652997  0.81255678  0.06105139    -0.81070
O1690       O  0.54668983  0.85270231  0.04429680    -0.81130
O1691       O  0.99650056  0.86363933  0.40946244    -0.81090
O1692       O  0.90401492  0.77817528  0.02147984    -0.81050
O1693       O  0.59570674  0.89810956  0.45528683    -0.81120
Co1694     Co  0.95393490  0.80487126  0.43560062     1.51530
Co1695     Co  0.55283813  0.82295981  0.00195330     1.51690
Co1696     Co  0.55575794  0.83399068  0.45211713     1.51570
Co1697     Co  0.95158582  0.76661189  0.03180445     1.51470
O1698       O  0.49527067  0.81408496  0.48302780    -1.43010
C1699       C  0.89505886  0.80115240  0.49522866     1.08540
C1700       C  0.61027724  0.90937445  0.48898350     1.08630
C1701       C  0.52426591  0.86961434  0.38297985     1.08560
C1702       C  0.51264656  0.84200931  0.06576632     1.08540
O1703       O  0.78493879  0.80259465  0.41178699    -0.81080
O1704       O  0.76396223  0.84560430  0.06671701    -0.81100
O1705       O  0.77952452  0.90841375  0.46199611    -0.81110
O1706       O  0.83804641  0.79079875  0.03989239    -0.81050
O1707       O  0.72964925  0.87970261  0.01269396    -0.81180
O1708       O  0.83037783  0.80110286  0.47353280    -0.81100
O1709       O  0.82147992  0.85508080  0.03614942    -0.81080
O1710       O  0.80794502  0.86769137  0.41540473    -0.81120
C1711       C  0.80638724  0.84064057  0.39651508     1.08610
C1712       C  0.80321819  0.86190534  0.06327627     1.08490
C1713       C  0.75628205  0.91203169  0.48670532     1.08630
C1714       C  0.85326548  0.79849737  0.50318241     1.08510
O1715       O  0.76491415  0.72860299  0.45467369    -0.81080
O1716       O  0.66651836  0.79850307  0.00114854    -0.81160
O1717       O  0.72215080  0.81140755  0.40525582    -0.81090
O1718       O  0.76430322  0.77609220  0.07987931    -0.81070
O1719       O  0.70290501  0.76290206  0.06091752    -0.81130
O1720       O  0.70598832  0.75234522  0.44849999    -0.81090
O1721       O  0.76429034  0.73132315  0.01999164    -0.81050
O1722       O  0.69599429  0.85081254  0.44758985    -0.81120
Co1723     Co  0.76346977  0.77527832  0.46753114     1.51530
Co1724     Co  0.71751244  0.81997056  0.03259034     1.51690
Co1725     Co  0.75288568  0.85699880  0.43663764     1.51570
Co1726     Co  0.79205843  0.79797951  0.02243542     1.51470
O1727       O  0.75422718  0.81710551  0.48924097    -1.43010
C1728       C  0.76274455  0.71078245  0.49136190     1.08540
C1729       C  0.66408166  0.82488509  0.47280717     1.08630
C1730       C  0.70302887  0.77164537  0.41361611     1.08560
C1731       C  0.72595476  0.76131507  0.08935917     1.08540
C1732       C  0.85977817  0.58414999  0.17397253    -0.10100
C1733       C  0.83380100  0.55599456  0.21045922     0.06100
C1734       C  0.79133333  0.52817068  0.20410948    -0.03870
C1735       C  0.77835979  0.52639732  0.16370579    -0.08320
C1736       C  0.80537612  0.55373033  0.12871295     0.05210
C1737       C  0.84591687  0.58386757  0.13452934    -0.03340
Br1738     Br  0.88472284  0.62450425  0.08905137    -0.03040
H1739       H  0.89256737  0.60620165  0.17458593     0.09120
H1740       H  0.74664596  0.50395124  0.15966813     0.07140
Br1741     Br  0.74837231  0.49301683  0.24831845    -0.03460
C1742       C  0.82487610  0.57516391  0.29690153    -0.10100
C1743       C  0.83388049  0.54388098  0.29468418     0.06100
C1744       C  0.83756773  0.52303600  0.33470597    -0.03870
C1745       C  0.83174128  0.53400522  0.37168530    -0.08320
C1746       C  0.82760668  0.56863069  0.37126009     0.05210
C1747       C  0.82789470  0.59131885  0.33235450    -0.03340
Br1748     Br  0.83844590  0.64793680  0.32402932    -0.03040
H1749       H  0.82325936  0.59279340  0.26901076     0.09120
H1750       H  0.83159492  0.51585751  0.40121327     0.07140
Br1751     Br  0.84877319  0.47832149  0.34646326    -0.03460
C1752       C  0.82284912  0.84765378  0.16950401    -0.10100
C1753       C  0.81494308  0.87461805  0.18663178     0.06100
C1754       C  0.80155568  0.89776191  0.15759490    -0.03870
C1755       C  0.80726761  0.90125557  0.11493007    -0.08320
C1756       C  0.82321188  0.87989481  0.09902548     0.05210
C1757       C  0.83466259  0.85613055  0.12724760    -0.03340
Br1758     Br  0.87144176  0.83970572  0.10972107    -0.03040
H1759       H  0.83086434  0.82764779  0.18922404     0.09120
H1760       H  0.79416695  0.91645265  0.09406077     0.07140
Br1761     Br  0.76564776  0.91677416  0.17129703    -0.03460
C1762       C  0.85531737  0.88913957  0.33711294    -0.10100
C1763       C  0.82115228  0.85061515  0.35333489     0.06100
C1764       C  0.79972030  0.82163490  0.32721812    -0.03870
C1765       C  0.80322485  0.83606191  0.28468995    -0.08320
C1766       C  0.83682650  0.87576499  0.26754721     0.05210
C1767       C  0.86604251  0.89985284  0.29515176    -0.03340
Br1768     Br  0.92111383  0.94789199  0.27922143    -0.03040
H1769       H  0.87478121  0.90986816  0.35729451     0.09120
H1770       H  0.78364963  0.81512923  0.26486682     0.07140
Br1771     Br  0.77969966  0.76331733  0.34554438    -0.03460
C1772       C  0.87762432  0.47462143  0.20467679    -0.10100
C1773       C  0.84468096  0.93552738  0.22349727     0.06100
C1774       C  0.81417575  0.93498672  0.24959794    -0.03870
C1775       C  0.82139467  0.47135508  0.26007089    -0.08320
C1776       C  0.85644483  0.51039089  0.24419324     0.05210
C1777       C  0.88281939  0.51119983  0.21298980    -0.03340
Br1778     Br  0.42670387  0.55784344  0.17700373    -0.03040
H1779       H  0.90054714  0.47807027  0.18331293     0.09120
H1780       H  0.79846072  0.46852198  0.28151491     0.07140
Br1781     Br  0.76110387  0.88711390  0.27414003    -0.03460
C1782       C  0.98796370  0.85560147  0.16935908    -0.10100
C1783       C  0.51605075  0.89837194  0.16764767     0.06100
C1784       C  0.54384230  0.92227440  0.13011373    -0.03870
C1785       C  0.54365171  0.90228831  0.09896532    -0.08320
C1786       C  0.51422554  0.86054966  0.10099472     0.05210
C1787       C  0.98572634  0.83691309  0.13655335    -0.03340
Br1788     Br  0.94163633  0.77896726  0.14374442    -0.03040
H1789       H  0.96670825  0.83612934  0.19639336     0.09120
H1790       H  0.56476799  0.92026911  0.07123724     0.07140
Br1791     Br  0.58014149  0.98241002  0.11172924    -0.03460
C1792       C  0.50310051  0.91780011  0.28028288    -0.10100
C1793       C  0.51226125  0.89973907  0.25082269     0.06100
C1794       C  0.52663695  0.87230782  0.26691065    -0.03870
C1795       C  0.53124969  0.86451224  0.30946491    -0.08320
C1796       C  0.52156232  0.88228940  0.33790039     0.05210
C1797       C  0.50663545  0.90881715  0.32273782    -0.03340
Br1798     Br  0.49198495  0.93502745  0.35817497    -0.03040
H1799       H  0.49341486  0.93999080  0.26971631     0.09120
H1800       H  0.54247672  0.84394563  0.32053532     0.07140
Br1801     Br  0.54568876  0.84756407  0.23453611    -0.03460
C1802       C  0.93490856  0.87498205  0.22593971    -0.10100
C1803       C  0.46630728  0.91065549  0.19952493     0.06100
C1804       C  0.95187940  0.92936810  0.16731201    -0.03870
C1805       C  0.91200846  0.92334310  0.17331564    -0.08320
C1806       C  0.88612044  0.89769265  0.20985272     0.05210
C1807       C  0.89541144  0.86679788  0.23002130    -0.03340
Br1808     Br  0.85896452  0.80920299  0.25859466    -0.03040
H1809       H  0.94066449  0.85186508  0.24397427     0.09120
H1810       H  0.90073675  0.93724635  0.14874274     0.07140
Br1811     Br  0.48150469  0.96088762  0.11454764    -0.03460
C1812       C  0.69115318  0.53712841  0.18590589    -0.10100
C1813       C  0.68484622  0.56876671  0.19351110     0.06100
C1814       C  0.68574620  0.59662225  0.15707053    -0.03870
C1815       C  0.68596257  0.58797019  0.11756219    -0.08320
C1816       C  0.68374544  0.55137020  0.11259316     0.05210
C1817       C  0.68276326  0.52393974  0.14843276    -0.03340
Br1818     Br  0.66481575  0.96587907  0.14998897    -0.03040
H1819       H  0.69425462  0.01730251  0.21139514     0.09120
H1820       H  0.69044506  0.61121195  0.09038267     0.07140
Br1821     Br  0.70514169  0.65419247  0.15330658    -0.03460
C1822       C  0.64593333  0.52041422  0.31140319    -0.10100
C1823       C  0.67520469  0.54389629  0.27586168     0.06100
C1824       C  0.71774321  0.56714089  0.28297084    -0.03870
C1825       C  0.72838129  0.57171246  0.32304898    -0.08320
C1826       C  0.69877125  0.55218126  0.35700887     0.05210
C1827       C  0.65724340  0.52488674  0.35136656    -0.03340
Br1828     Br  0.61507427  0.49428370  0.39689717    -0.03040
H1829       H  0.61335527  0.49937749  0.30820298     0.09120
H1830       H  0.76023312  0.59103253  0.32814503     0.07140
Br1831     Br  0.76248501  0.59706200  0.23952440    -0.03460
C1832       C  0.58888890  0.53127615  0.20742442    -0.10100
C1833       C  0.61726267  0.52194830  0.22868140     0.06100
C1834       C  0.61109414  0.98167724  0.23088938    -0.03870
C1835       C  0.58387755  0.95829202  0.20583022    -0.08320
C1836       C  0.54771155  0.96047616  0.19926247     0.05210
C1837       C  0.55049705  0.49893783  0.19980419    -0.03340
Br1838     Br  0.50687485  0.51139117  0.19674926    -0.03040
H1839       H  0.59409270  0.56244818  0.20179748     0.09120
H1840       H  0.58464321  0.93112513  0.20207464     0.07140
Br1841     Br  0.63615009  0.95357548  0.26438569    -0.03460
C1842       C  0.71781183  0.75016968  0.20731179    -0.10100
C1843       C  0.67463866  0.72134738  0.21809684     0.06100
C1844       C  0.65169572  0.70550672  0.18337824    -0.03870
C1845       C  0.66707896  0.72757563  0.14318044    -0.08320
C1846       C  0.70990709  0.74920512  0.13367262     0.05210
C1847       C  0.73543951  0.75645650  0.16722589    -0.03340
Br1848     Br  0.78452596  0.75272363  0.16467281    -0.03040
H1849       H  0.73840977  0.76149397  0.23120093     0.09120
H1850       H  0.64661673  0.71806112  0.11847160     0.07140
Br1851     Br  0.61722554  0.64750852  0.18040805    -0.03460
C1852       C  0.68009547  0.69949117  0.33902932    -0.10100
C1853       C  0.67950839  0.72336326  0.30029498     0.06100
C1854       C  0.68305424  0.76205890  0.30155887    -0.03870
C1855       C  0.68764888  0.77560990  0.33923090    -0.08320
C1856       C  0.68727703  0.75100906  0.37733960     0.05210
C1857       C  0.68131511  0.71154366  0.37674219    -0.03340
Br1858     Br  0.67314467  0.67115031  0.42578019    -0.03040
H1859       H  0.67537457  0.66865570  0.34157423     0.09120
H1860       H  0.69119235  0.80582479  0.33861226     0.07140
Br1861     Br  0.67482129  0.79453016  0.25445084    -0.03460
C1862       C  0.62461398  0.62072415  0.28487782    -0.10100
C1863       C  0.65977327  0.66035901  0.27139658     0.06100
C1864       C  0.69687632  0.66239114  0.26111734    -0.03870
C1865       C  0.69387426  0.63003662  0.24621326    -0.08320
C1866       C  0.65576319  0.59245350  0.24776144     0.05210
C1867       C  0.62153248  0.58641233  0.27317434    -0.03340
Br1868     Br  0.56882948  0.53591759  0.29455654    -0.03040
H1869       H  0.59879289  0.61653539  0.30338512     0.09120
H1870       H  0.72229848  0.63496571  0.23335232     0.07140
Br1871     Br  0.75184030  0.70297235  0.27242974    -0.03250
C1872       C  0.98558331  0.71547032  0.14291107    -0.10100
C1873       C  0.01534024  0.75557729  0.12442940     0.06100
C1874       C  0.54318720  0.78258586  0.15060712    -0.03870
C1875       C  0.53847340  0.76830114  0.19434249    -0.08320
C1876       C  0.50963656  0.72630436  0.21271785     0.05210
C1877       C  0.98953081  0.70016027  0.18281970    -0.03340
Br1878     Br  0.98999741  0.65083175  0.18231403    -0.03040
H1879       H  0.96624499  0.69350307  0.12365246     0.09120
H1880       H  0.56035811  0.78880898  0.21304921     0.07140
Br1881     Br  0.59019673  0.83768038  0.12977999    -0.03460
C1882       C  0.97246868  0.72312284  0.36332941    -0.10100
C1883       C  0.50986149  0.75572584  0.37174624     0.06100
C1884       C  0.54422385  0.77575081  0.34171876    -0.03870
C1885       C  0.53953635  0.76320179  0.30336950    -0.08320
C1886       C  0.50306577  0.72658795  0.29619151     0.05210
C1887       C  0.96971859  0.70539532  0.32965744    -0.03340
Br1888     Br  0.92715402  0.64681493  0.34742086    -0.03040
H1889       H  0.94592259  0.70836662  0.38632586     0.09120
H1890       H  0.56679334  0.77886614  0.28149244     0.07140
Br1891     Br  0.59845859  0.81929260  0.35131731    -0.03460
C1892       C  0.56656919  0.70080578  0.23375024    -0.10100
C1893       C  0.54484339  0.70060176  0.26817876     0.06100
C1894       C  0.55730966  0.68964243  0.30809802    -0.03870
C1895       C  0.59274845  0.68634223  0.30914278    -0.08320
C1896       C  0.61124804  0.68731504  0.27190419     0.05210
C1897       C  0.58482294  0.67741817  0.24056411    -0.03340
Br1898     Br  0.54355340  0.61825073  0.24661989    -0.03040
H1899       H  0.56400892  0.71136023  0.20190324     0.09120
H1900       H  0.60501822  0.68293478  0.33850528     0.07140
Br1901     Br  0.52977646  0.67474342  0.36208361    -0.03460
C1902       C  0.96530306  0.62555456  0.27901654    -0.10100
C1903       C  0.96682240  0.66361025  0.26559086     0.06100
C1904       C  0.93033825  0.66243741  0.25216787    -0.03870
C1905       C  0.89912947  0.62656628  0.24200689    -0.08320
C1906       C  0.89802919  0.58802067  0.25150751     0.05210
C1907       C  0.93165139  0.58810637  0.27236113    -0.03340
Br1908     Br  0.93838950  0.54148508  0.29062856    -0.03040
H1909       H  0.99008208  0.62444084  0.29507057     0.09120
H1910       H  0.87473176  0.62956981  0.22690865     0.07140
Br1911     Br  0.92278545  0.70991469  0.24232119    -0.03460
C1912       C  0.00679000  0.70575305  0.76082333    -0.03430
C1913       C  0.65719536  0.69927476  0.76518635    -0.03430
C1914       C  0.65909426  0.55733434  0.73605076    -0.03430
C1915       C  0.51017625  0.91721803  0.70313452    -0.03430
C1916       C  0.84425983  0.89497139  0.72107828    -0.03430
C1917       C  0.85502954  0.54861597  0.75080329    -0.03430
O1918       O  0.80767643  0.55143132  0.94451415    -0.81080
O1919       O  0.78027374  0.58467105  0.57714721    -0.81100
O1920       O  0.82826167  0.66361542  0.94938259    -0.81110
O1921       O  0.74932214  0.96443231  0.51429835    -0.81050
O1922       O  0.83401856  0.63631282  0.50945400    -0.81180
O1923       O  0.75115736  0.96917328  0.94592683    -0.81100
O1924       O  0.78278499  0.53033499  0.56470855    -0.81080
O1925       O  0.79997645  0.59983861  0.90549432    -0.81120
C1926       C  0.81495335  0.57617316  0.91002172     1.08610
C1927       C  0.78889054  0.55620184  0.58786262     1.08490
C1928       C  0.85107639  0.66736478  0.97914156     1.08630
C1929       C  0.75371594  0.95136195  0.98171532     1.08510
O1930       O  0.68199907  0.97201112  0.96229990    -0.81080
O1931       O  0.77692637  0.65764617  0.53001741    -0.81160
O1932       O  0.71539726  0.57600072  0.92078124    -0.81090
O1933       O  0.70377531  0.51937139  0.57323414    -0.81070
O1934       O  0.70949010  0.57787420  0.54061045    -0.81130
O1935       O  0.73291332  0.53172575  0.90549542    -0.81090
O1936       O  0.66739415  0.95952279  0.52718397    -0.81050
O1937       O  0.74532241  0.64367334  0.97198841    -0.81120
Co1938     Co  0.74695726  0.51383522  0.96003043     1.51530
Co1939     Co  0.76951500  0.60474771  0.52092120     1.51690
Co1940     Co  0.76964462  0.61387191  0.94263670     1.51570
Co1941     Co  0.72864225  0.50024982  0.53861759     1.51470
O1942       O  0.75072067  0.55693810  0.99049002    -1.43010
C1943       C  0.65461896  0.94974525  0.99278123     1.08540
C1944       C  0.76081690  0.66842462  0.99901500     1.08630
C1945       C  0.71462325  0.55217751  0.89754366     1.08560
C1946       C  0.69621469  0.54806079  0.57192084     1.08540
O1947       O  0.97960963  0.78449689  0.90240050    -0.81080
O1948       O  0.54910592  0.79826469  0.55987304    -0.81100
O1949       O  0.61090530  0.83808846  0.93939612    -0.81110
O1950       O  0.91906150  0.71353369  0.50744301    -0.81050
O1951       O  0.60772819  0.82541261  0.50692353    -0.81180
O1952       O  0.90346537  0.74295999  0.95239166    -0.81100
O1953       O  0.98847672  0.74586453  0.55638869    -0.81080
O1954       O  0.52832937  0.77841774  0.93679973    -0.81120
C1955       C  0.50629792  0.77347887  0.90610473     1.08610
C1956       C  0.01776032  0.76624024  0.57823297     1.08490
C1957       C  0.62612237  0.82949246  0.97264674     1.08630
C1958       C  0.89402415  0.70966137  0.97929792     1.08510
O1959       O  0.91965472  0.82327441  0.96249385    -0.81080
O1960       O  0.58730909  0.88072461  0.51946363    -0.81160
O1961       O  0.55029261  0.85821476  0.89414437    -0.81090
O1962       O  0.97652974  0.81255683  0.56105136    -0.81070
O1963       O  0.54668964  0.85270246  0.54429674    -0.81130
O1964       O  0.99650068  0.86363937  0.90946248    -0.81090
O1965       O  0.90401474  0.77817528  0.52147972    -0.81050
O1966       O  0.59570674  0.89810970  0.95528687    -0.81120
Co1967     Co  0.95393510  0.80487126  0.93560065     1.51530
Co1968     Co  0.55283796  0.82295985  0.50195335     1.51690
Co1969     Co  0.55575813  0.83399085  0.95211706     1.51570
Co1970     Co  0.95158563  0.76661190  0.53180443     1.51470
O1971       O  0.49527086  0.81408503  0.98302775    -1.43010
C1972       C  0.89505904  0.80115239  0.99522877     1.08540
C1973       C  0.61027732  0.90937450  0.98898354     1.08630
C1974       C  0.52426616  0.86961456  0.88297980     1.08560
C1975       C  0.51264639  0.84200946  0.56576629     1.08540
O1976       O  0.78493909  0.80259472  0.91178708    -0.81080
O1977       O  0.76396205  0.84560399  0.56671710    -0.81100
O1978       O  0.77952467  0.90841403  0.96199583    -0.81110
O1979       O  0.83804620  0.79079862  0.53989226    -0.81050
O1980       O  0.72964904  0.87970233  0.51269418    -0.81180
O1981       O  0.83037806  0.80110298  0.97353292    -0.81100
O1982       O  0.82147972  0.85508064  0.53614931    -0.81080
O1983       O  0.80794527  0.86769148  0.91540463    -0.81120
C1984       C  0.80638752  0.84064061  0.89651508     1.08610
C1985       C  0.80321802  0.86190511  0.56327624     1.08490
C1986       C  0.75628221  0.91203197  0.98670506     1.08630
C1987       C  0.85326569  0.79849745  0.00318254     1.08510
O1988       O  0.76491441  0.72860310  0.95467385    -0.81080
O1989       O  0.66651810  0.79850287  0.50114871    -0.81160
O1990       O  0.72215109  0.81140762  0.90525572    -0.81090
O1991       O  0.76430311  0.77609199  0.57987922    -0.81070
O1992       O  0.70290482  0.76290178  0.56091759    -0.81130
O1993       O  0.70598859  0.75234534  0.94849997    -0.81090
O1994       O  0.76429013  0.73132301  0.51999150    -0.81050
O1995       O  0.69599451  0.85081268  0.94758964    -0.81120
Co1996     Co  0.76347002  0.77527845  0.96753121     1.51530
Co1997     Co  0.71751221  0.81997029  0.53259048     1.51690
Co1998     Co  0.75288592  0.85699894  0.93663749     1.51570
Co1999     Co  0.79205823  0.79797935  0.52243533     1.51470
O2000       O  0.75422744  0.81710573  0.98924093    -1.43010
C2001       C  0.76274479  0.71078257  0.99136206     1.08540
C2002       C  0.66408189  0.82488526  0.97280700     1.08630
C2003       C  0.70302919  0.77164545  0.91361604     1.08560
C2004       C  0.72595465  0.76131478  0.58935915     1.08540
C2005       C  0.85977756  0.58415147  0.67397255    -0.10100
C2006       C  0.83380071  0.55599533  0.71045911     0.06100
C2007       C  0.79133321  0.52817084  0.70410928    -0.03870
C2008       C  0.77835979  0.52639728  0.66370556    -0.08320
C2009       C  0.80537598  0.55373079  0.62871283     0.05210
C2010       C  0.84591630  0.58386888  0.63452937    -0.03340
Br2011     Br  0.88472193  0.62450642  0.58905160    -0.03040
H2012       H  0.89256667  0.60620356  0.67458585     0.09120
H2013       H  0.74664615  0.50395069  0.65966780     0.07140
Br2014     Br  0.74837221  0.49301643  0.74831815    -0.03460
C2015       C  0.82487628  0.57516453  0.79690147    -0.10100
C2016       C  0.83388071  0.54388165  0.79468398     0.06100
C2017       C  0.83756831  0.52303684  0.83470571    -0.03870
C2018       C  0.83174183  0.53400594  0.87168511    -0.08320
C2019       C  0.82760702  0.56863127  0.87126002     0.05210
C2020       C  0.82789495  0.59131943  0.83235448    -0.03340
Br2021     Br  0.83844571  0.64793722  0.82402936    -0.03040
H2022       H  0.82325948  0.59279406  0.76901080     0.09120
H2023       H  0.83159566  0.51585829  0.90121304     0.07140
Br2024     Br  0.84877457  0.47832289  0.84646284    -0.03460
C2025       C  0.82284902  0.84765344  0.66950389    -0.10100
C2026       C  0.81494287  0.87461758  0.68663176     0.06100
C2027       C  0.80155543  0.89776144  0.65759491    -0.03870
C2028       C  0.80726750  0.90125529  0.61493007    -0.08320
C2029       C  0.82321180  0.87989460  0.59902541     0.05210
C2030       C  0.83466254  0.85613032  0.62724747    -0.03340
Br2031     Br  0.87144180  0.83970565  0.60972084    -0.03040
H2032       H  0.83086432  0.82764748  0.68922386     0.09120
H2033       H  0.79416683  0.91645240  0.59406080     0.07140
Br2034     Br  0.76564722  0.91677337  0.67129702    -0.03460
C2035       C  0.85531754  0.88913950  0.83711284    -0.10100
C2036       C  0.82115254  0.85061506  0.85333491     0.06100
C2037       C  0.79972057  0.82163469  0.82721825    -0.03870
C2038       C  0.80322497  0.83606158  0.78469007    -0.08320
C2039       C  0.83682649  0.87576468  0.76754720     0.05210
C2040       C  0.86604257  0.89985269  0.79515164    -0.03340
Br2041     Br  0.92111381  0.94789198  0.77922121    -0.03040
H2042       H  0.87478137  0.90986821  0.85729433     0.09120
H2043       H  0.78364973  0.81512880  0.76486702     0.07140
Br2044     Br  0.77970008  0.76331715  0.84554463    -0.03460
C2045       C  0.87762436  0.47462207  0.70467642    -0.10100
C2046       C  0.84468063  0.93552685  0.72349724     0.06100
C2047       C  0.81417527  0.93498610  0.74959777    -0.03870
C2048       C  0.82139496  0.47135570  0.76007090    -0.08320
C2049       C  0.85644474  0.51039159  0.74419264     0.05210
C2050       C  0.88281891  0.51120050  0.71298879    -0.03340
Br2051     Br  0.42670514  0.55784333  0.67700478    -0.03040
H2052       H  0.90054712  0.47807093  0.68331247     0.09120
H2053       H  0.79846119  0.46852256  0.78151519     0.07140
Br2054     Br  0.76110349  0.88711316  0.77413986    -0.03460
C2055       C  0.98796379  0.85560158  0.66935914    -0.10100
C2056       C  0.51605092  0.89837230  0.66764763     0.06100
C2057       C  0.54384239  0.92227471  0.63011362    -0.03870
C2058       C  0.54365164  0.90228857  0.59896519    -0.08320
C2059       C  0.51422542  0.86054992  0.60099465     0.05210
C2060       C  0.98572633  0.83691320  0.63655336    -0.03340
Br2061     Br  0.94163651  0.77896729  0.64374454    -0.03040
H2062       H  0.96670845  0.83612942  0.69639348     0.09120
H2063       H  0.56476786  0.92026933  0.57123707     0.07140
Br2064     Br  0.58014167  0.98241031  0.61172909    -0.03460
C2065       C  0.50310086  0.91780054  0.78028286    -0.10100
C2066       C  0.51226159  0.89973952  0.75082263     0.06100
C2067       C  0.52663731  0.87230828  0.76691054    -0.03870
C2068       C  0.53125004  0.86451263  0.80946481    -0.08320
C2069       C  0.52156262  0.88228972  0.83790033     0.05210
C2070       C  0.50663579  0.90881751  0.82273780    -0.03340
Br2071     Br  0.49198529  0.93502777  0.85817500    -0.03040
H2072       H  0.49341520  0.93999122  0.76971632     0.09120
H2073       H  0.54247705  0.84394600  0.82053517     0.07140
Br2074     Br  0.54568916  0.84756459  0.73453595    -0.03460
C2075       C  0.93490864  0.87498203  0.72593979    -0.10100
C2076       C  0.46630748  0.91065584  0.69952495     0.06100
C2077       C  0.95187939  0.92936807  0.66731206    -0.03870
C2078       C  0.91200835  0.92334284  0.67331560    -0.08320
C2079       C  0.88612030  0.89769232  0.70985263     0.05210
C2080       C  0.89541142  0.86679764  0.73002121    -0.03340
Br2081     Br  0.85896455  0.80920267  0.75859437    -0.03040
H2082       H  0.94066464  0.85186514  0.74397441     0.09120
H2083       H  0.90073663  0.93724612  0.64874271     0.07140
Br2084     Br  0.48150493  0.96088808  0.61454767    -0.03460
C2085       C  0.69115231  0.53712749  0.68590608    -0.10100
C2086       C  0.68484553  0.56876588  0.69351135     0.06100
C2087       C  0.68574583  0.59662164  0.65707082    -0.03870
C2088       C  0.68596226  0.58796971  0.61756242    -0.08320
C2089       C  0.68374509  0.55136973  0.61259324     0.05210
C2090       C  0.68276276  0.52393911  0.64843280    -0.03340
Br2091     Br  0.66481581  0.96587954  0.64998944    -0.03040
H2092       H  0.69425558  0.01730390  0.71139504     0.09120
H2093       H  0.69044493  0.61121161  0.59038295     0.07140
Br2094     Br  0.70514194  0.65419198  0.65330705    -0.03460
C2095       C  0.64593295  0.52041401  0.81140364    -0.10100
C2096       C  0.67520420  0.54389569  0.77586199     0.06100
C2097       C  0.71774278  0.56714004  0.78297091    -0.03870
C2098       C  0.72838127  0.57171188  0.82304898    -0.08320
C2099       C  0.69877126  0.55218113  0.85700898     0.05210
C2100       C  0.65724328  0.52488687  0.85136691    -0.03340
Br2101     Br  0.61507428  0.49428460  0.89689769    -0.03040
H2102       H  0.61335487  0.49937746  0.80820360     0.09120
H2103       H  0.76023234  0.59103125  0.82814471     0.07140
Br2104     Br  0.76248433  0.59706075  0.73952423    -0.03460
C2105       C  0.58888842  0.53127561  0.70742469    -0.10100
C2106       C  0.61726205  0.52194768  0.72868187     0.06100
C2107       C  0.61109465  0.98167806  0.73088882    -0.03870
C2108       C  0.58387780  0.95829256  0.70583002    -0.08320
C2109       C  0.54771175  0.96047663  0.69926235     0.05210
C2110       C  0.55049666  0.49893735  0.69980418    -0.03340
Br2111     Br  0.50687452  0.51139078  0.69674873    -0.03040
H2112       H  0.59409225  0.56244765  0.70179773     0.09120
H2113       H  0.58464341  0.93112562  0.70207455     0.07140
Br2114     Br  0.63615080  0.95357646  0.76438504    -0.03460
C2115       C  0.71781199  0.75016930  0.70731178    -0.10100
C2116       C  0.67463884  0.72134699  0.71809689     0.06100
C2117       C  0.65169585  0.70550624  0.68337835    -0.03870
C2118       C  0.66707897  0.72757511  0.64318054    -0.08320
C2119       C  0.70990708  0.74920471  0.63367263     0.05210
C2120       C  0.73543959  0.75645613  0.66722584    -0.03340
Br2121     Br  0.78452609  0.75272336  0.66467260    -0.03040
H2122       H  0.73840998  0.76149362  0.73120088     0.09120
H2123       H  0.64661668  0.71806053  0.61847175     0.07140
Br2124     Br  0.61722572  0.64750802  0.68040830    -0.03460
C2125       C  0.68009574  0.69949107  0.83902936    -0.10100
C2126       C  0.67950859  0.72336309  0.80029500     0.06100
C2127       C  0.68305448  0.76205875  0.80155881    -0.03870
C2128       C  0.68764921  0.77560985  0.83923080    -0.08320
C2129       C  0.68727740  0.75100908  0.87733954     0.05210
C2130       C  0.68131547  0.71154366  0.87674219    -0.03340
Br2131     Br  0.67314514  0.67115041  0.92578024    -0.03040
H2132       H  0.67537482  0.66865559  0.84157433     0.09120
H2133       H  0.69119266  0.80582474  0.83861212     0.07140
Br2134     Br  0.67482132  0.79452982  0.75445075    -0.03460
C2135       C  0.62461376  0.62072387  0.78487797    -0.10100
C2136       C  0.65977319  0.66035865  0.77139679     0.06100
C2137       C  0.69687618  0.66239058  0.76111768    -0.03870
C2138       C  0.69387398  0.63003596  0.74621370    -0.08320
C2139       C  0.65576281  0.59245297  0.74776173     0.05210
C2140       C  0.62153210  0.58641197  0.77317451    -0.03340
Br2141     Br  0.56882892  0.53591739  0.79455658    -0.03040
H2142       H  0.59879268  0.61653524  0.80338516     0.09120
H2143       H  0.72229819  0.63496487  0.73335294     0.07140
Br2144     Br  0.75184024  0.70297184  0.77242989    -0.03250
C2145       C  0.98558416  0.71546982  0.64291105    -0.10100
C2146       C  0.01534039  0.75557710  0.62442948     0.06100
C2147       C  0.54318721  0.78258612  0.65060716    -0.03870
C2148       C  0.53847353  0.76830136  0.69434252    -0.08320
C2149       C  0.50963680  0.72630455  0.71271786     0.05210
C2150       C  0.98953179  0.70015993  0.68281971    -0.03340
Br2151     Br  0.98999799  0.65083106  0.68231460    -0.03040
H2152       H  0.96624622  0.69350247  0.62365237     0.09120
H2153       H  0.56035824  0.78880922  0.71304922     0.07140
Br2154     Br  0.59019661  0.83768070  0.62977999    -0.03460
C2155       C  0.97246926  0.72312311  0.86332935    -0.10100
C2156       C  0.50986172  0.75572601  0.87174616     0.06100
C2157       C  0.54422405  0.77575101  0.84171866    -0.03870
C2158       C  0.53953655  0.76320197  0.80336942    -0.08320
C2159       C  0.50306600  0.72658808  0.79619147     0.05210
C2160       C  0.96971917  0.70539556  0.82965741    -0.03340
Br2161     Br  0.92715421  0.64681527  0.84742071    -0.03040
H2162       H  0.94592314  0.70836694  0.88632575     0.09120
H2163       H  0.56679354  0.77886633  0.78149235     0.07140
Br2164     Br  0.59845879  0.81929283  0.85131718    -0.03460
C2165       C  0.56656953  0.70080605  0.73375018    -0.10100
C2166       C  0.54484372  0.70060199  0.76817872     0.06100
C2167       C  0.55730997  0.68964260  0.80809798    -0.03870
C2168       C  0.59274867  0.68634224  0.80914274    -0.08320
C2169       C  0.61124823  0.68731502  0.77190415     0.05210
C2170       C  0.58482319  0.67741834  0.74056400    -0.03340
Br2171     Br  0.54355352  0.61825095  0.74661962    -0.03040
H2172       H  0.56400925  0.71136054  0.70190319     0.09120
H2173       H  0.60501840  0.68293470  0.83850523     0.07140
Br2174     Br  0.52977681  0.67474369  0.86208357    -0.03460
C2175       C  0.96530316  0.62555460  0.77901641    -0.10100
C2176       C  0.96682278  0.66361043  0.76559090     0.06100
C2177       C  0.93033881  0.66243797  0.75216788    -0.03870
C2178       C  0.89912972  0.62656694  0.74200704    -0.08320
C2179       C  0.89802930  0.58802124  0.75150714     0.05210
C2180       C  0.93165150  0.58810665  0.77236051    -0.03340
Br2181     Br  0.93838993  0.54148542  0.79062654    -0.03040
H2182       H  0.99008212  0.62444065  0.79507034     0.09120
H2183       H  0.87473202  0.62957071  0.72690912     0.07140
Br2184     Br  0.92278647  0.70991553  0.74232131    -0.03460
loop_ 
_geom_bond_atom_site_label_1 
_geom_bond_atom_site_label_2 
_geom_bond_distance 
_geom_bond_site_symmetry_2 
_ccdc_geom_bond_type 
C1          C265   1.510       .  S
C1         C1330   1.614       .  S
C1         C1340   1.573       .  S
C1         C1347   1.543       .  S
C2          C205   1.596       .  S
C2          C215   1.561       .  S
C2          C225   1.508       .  S
C2          C258   1.546       .  S
C3          C175   1.580       .  S
C3          C185   1.543       .  S
C3          C195   1.502       .  S
C3          C228   1.521       .  S
C4          C145   1.555       .  S
C4          C155   1.608       .  S
C4          C165   1.534   1_455  S
C4          C198   1.499       .  S
C5          C115   1.577       .  S
C5          C128   1.536       .  S
C5          C135   1.551       .  S
C5          C168   1.566       .  S
C6           C95   1.588       .  S
C6          C105   1.603       .  S
C6          C138   1.536       .  S
C6          C268   1.538       .  S
O7           C15   1.269       .  A
O7          Co27   1.978       .  S
O8           C16   1.270       .  A
O8          Co28   1.986       .  S
O9           C17   1.265       .  A
O9          Co29   2.074       .  S
O10         C291   1.312   1_554  A
O10        Co576   2.149       .  S
O11         C290   1.273   1_554  A
O11         Co28   2.075       .  S
O12          C18   1.276       .  A
O12        Co573   1.923       .  S
O13          C16   1.281       .  A
O13         Co30   2.013       .  S
O14          C15   1.270       .  A
O14         Co29   2.003       .  S
C15         C108   1.499       .  S
C16          C98   1.476       .  S
C17         O284   1.273       .  A
C17          C47   1.585       .  S
C18         O283   1.312       .  A
C18          C75   1.526       .  S
O19          C32   1.273       .  A
O19        Co573   2.105       .  S
O20         C306   1.284   1_554  A
O20         Co28   1.964       .  S
O21          C34   1.280       .  A
O21         Co29   2.005       .  S
O22          C35   1.254       .  A
O22         Co30   1.938       .  S
O23          C35   1.269       .  A
O23         Co28   1.994       .  S
O24          C34   1.268       .  A
O24         Co27   1.962       .  S
O25         C305   1.266   1_554  A
O25        Co576   2.078       .  S
O26          C33   1.320       .  A
O26         Co29   2.136       .  S
Co27        O558   1.923   1_545  S
Co27        O565   2.105   1_545  S
Co27         O31   2.021       .  S
Co28        O304   2.033   1_554  S
Co29         O31   2.212       .  S
Co30        O556   2.149   1_545  S
Co30        O571   2.078   1_545  S
Co30        O304   2.194   1_554  S
O31        Co301   2.033       .  S
O31        Co303   2.194       .  S
C32         O298   1.266       .  A
C32          C62   1.602       .  S
C33         O293   1.284       .  A
C33          C90   1.547       .  S
C34         C188   1.450       .  S
C35         C178   1.480       .  S
O36        C1136   1.263       .  A
O36         Co56   1.964       .  S
O37        C1137   1.232       .  A
O37         Co57   1.941       .  S
O38          C46   1.290       .  A
O38         Co58   2.037       .  S
O39         C320   1.277   1_554  A
O39         Co59   2.056       .  S
O40         C319   1.281   1_554  A
O40         Co57   2.013       .  S
O41          C47   1.286       .  A
O41         Co56   2.099       .  S
O42          C45   1.271       .  A
O42         Co59   2.005       .  S
O43          C44   1.270       .  A
O43         Co58   1.978       .  S
C44        O1128   1.263   1_455  A
C44         C245   1.464       .  S
C45        O1129   1.232       .  A
C45         C235   1.496       .  S
C46         O313   1.281       .  A
C46          C91   1.519       .  S
C47         O312   1.277       .  A
O48          C61   1.279       .  A
O48         Co56   2.033       .  S
O49         C335   1.269   1_554  A
O49         Co57   2.083       .  S
O50          C63   1.277       .  A
O50         Co58   2.018       .  S
O51        C1156   1.266       .  A
O51         Co59   1.938       .  S
O52          C64   1.302       .  A
O52         Co57   2.038       .  S
O53        C1155   1.274       .  A
O53         Co56   1.991       .  S
O54         C334   1.278   1_554  A
O54         Co59   2.050       .  S
O55          C62   1.274       .  A
O55         Co58   2.127       .  S
Co56       O1152   2.120       .  S
Co57        O333   2.101   1_454  S
Co58         O60   2.191   1_455  S
Co59       O1425   2.130   1_554  S
O60       Co1148   2.120       .  S
O60        Co330   2.101   1_655  S
O60       Co1424   2.130       .  S
C61         O327   1.278       .  A
C61          C76   1.541       .  S
C62         O322   1.269       .  A
C63        O1145   1.274   1_455  A
C63         C158   1.494       .  S
C64        O1143   1.266   1_455  A
C64         C148   1.452       .  S
O65          C73   1.243       .  A
O65         Co85   1.901       .  S
O66          C74   1.265       .  A
O66         Co86   1.952       .  S
O67          C75   1.281       .  A
O67         Co87   2.019       .  S
O68         C349   1.268       .  A
O68         Co88   1.936       .  S
O69         C348   1.277   1_554  A
O69         Co86   2.048       .  S
O70          C76   1.309       .  A
O70         Co85   2.189       .  S
O71          C74   1.279       .  A
O71         Co88   2.002       .  S
O72          C73   1.274       .  A
O72         Co87   2.002       .  S
C73         C125   1.450       .  S
C74         C118   1.466       .  S
C75         O342   1.277       .  A
C76         O341   1.268       .  A
O77          C90   1.255       .  A
O77         Co85   1.927       .  S
O78         C364   1.278   1_554  A
O78         Co86   2.000       .  S
O79          C92   1.271       .  A
O79         Co87   1.989       .  S
O80          C93   1.265       .  A
O80         Co88   1.997       .  S
O81          C93   1.274       .  A
O81         Co86   1.983       .  S
O82          C92   1.281       .  A
O82         Co85   1.998       .  S
O83         C363   1.315   1_554  A
O83         Co88   2.207       .  S
O84          C91   1.274       .  A
O84         Co87   2.052       .  S
Co85         O89   2.041       .  S
Co86        O362   2.063   1_554  S
Co87         O89   2.102       .  S
Co88        O362   2.104   1_554  S
O89        Co359   2.063       .  S
O89        Co361   2.104       .  S
C90         O356   1.315       .  A
C91         O351   1.278       .  A
C92         C218   1.495       .  S
C93         C208   1.490       .  S
C94          C95   1.431       .  A
C94          C99   1.390       .  A
C94         H101   1.075       .  S
C95          C96   1.423       .  A
C96          C97   1.410       .  A
C96        Br103   1.918   1_545  S
C97          C98   1.402       .  A
C97         H102   1.071       .  S
C98          C99   1.389       .  A
C99        Br100   1.920       .  S
C104        C105   1.407       .  A
C104        C109   1.396       .  A
C104        H111   1.054       .  S
C105        C106   1.452       .  A
C106        C107   1.416       .  A
C106       Br113   1.923   1_545  S
C107        C108   1.400       .  A
C107        H112   1.083       .  S
C108        C109   1.405       .  A
C109       Br110   1.943       .  S
C114        C115   1.412       .  A
C114        C119   1.400       .  A
C114        H121   1.065       .  S
C115        C116   1.436       .  A
C116        C117   1.401       .  A
C116       Br123   1.920       .  S
C117        C118   1.401       .  A
C117        H122   1.085       .  S
C118        C119   1.391       .  A
C119       Br120   1.918       .  S
C124        C125   1.372       .  A
C124        C129   1.376       .  A
C124        H131   1.084       .  S
C125        C126   1.417       .  A
C126        C127   1.392       .  A
C126       Br133   1.913       .  S
C127        C128   1.394       .  A
C127        H132   1.081       .  S
C128        C129   1.447       .  A
C129       Br130   1.919       .  S
C134        C139   1.381   1_565  A
C134        C681   1.387       .  A
C134        H141   1.063       .  S
C135        C136   1.437       .  A
C135        C680   1.387       .  A
C136        C683   1.376       .  A
C136       Br143   1.930       .  S
C137        C138   1.392   1_565  A
C137        C682   1.376       .  A
C137        H142   1.075       .  S
C138        C139   1.429       .  A
C139      Br1232   1.889       .  S
Br140      C1231   1.889       .  S
C144        C149   1.380       .  A
C144       C1237   1.401       .  A
C144        H151   1.077       .  S
C145        C146   1.454       .  A
C145       C1236   1.401   1_455  A
C146        C147   1.385       .  A
C146       Br153   1.942       .  S
C147        C148   1.379       .  A
C147        H152   1.085       .  S
C148       C1241   1.416   1_455  A
C149       C1240   1.416       .  A
C149       Br150   1.928       .  S
C154        C155   1.429       .  A
C154        C159   1.399       .  A
C154        H161   1.079   1_455  S
C155        C156   1.421       .  A
C156        C157   1.406       .  A
C156       Br163   1.907       .  S
C157        C158   1.405       .  A
C157        H162   1.071       .  S
C158        C159   1.400       .  A
C159       Br160   1.920   1_455  S
C164        C169   1.350       .  A
C164       C1257   1.397       .  A
C164        H171   1.081       .  S
C165       C1256   1.397       .  A
C165       C1258   1.420       .  A
C166        C167   1.402       .  A
C166       C1257   1.420       .  A
C166      Br1265   1.911       .  S
C167        C168   1.411       .  A
C167        H172   1.081       .  S
C168        C169   1.437       .  A
C169       Br170   1.941       .  S
Br173      C1258   1.911       .  S
C174        C175   1.405       .  A
C174        C179   1.389       .  A
C174        H727   1.068       .  S
C175        C176   1.436       .  A
C176        C177   1.404       .  A
C176       Br183   1.898       .  S
C177        C178   1.391       .  A
C177        H182   1.084       .  S
C178        C179   1.412       .  A
C179       Br726   1.939   1_545  S
Br180       C725   1.939       .  S
H181        C720   1.068       .  S
C184        C185   1.429       .  A
C184        C189   1.389       .  A
C184        H191   1.077   1_545  S
C185        C186   1.408       .  A
C186        C187   1.388       .  A
C186       Br193   1.925       .  S
C187        C188   1.393       .  A
C187        H192   1.060       .  S
C188        C189   1.387       .  A
C189       Br190   1.918   1_545  S
C194        C195   1.416       .  A
C194        C199   1.385   1_545  A
C194        H201   1.077       .  S
C195        C742   1.414   1_545  A
C196        C197   1.346       .  A
C196        C741   1.414       .  A
C196       Br203   1.946       .  S
C197        C198   1.408       .  A
C197        H202   1.078       .  S
C198        C745   1.415       .  A
C199        C744   1.415       .  A
C199       Br200   1.916   1_565  S
C204        C205   1.414       .  A
C204        C209   1.416       .  A
C204        H211   1.075       .  S
C205        C206   1.445       .  A
C206        C207   1.387       .  A
C206       Br213   1.919       .  S
C207        C208   1.384       .  A
C207        H212   1.085       .  S
C208        C209   1.416       .  A
C209       Br210   1.920       .  S
C214        C215   1.431       .  A
C214        C219   1.396       .  A
C214        H221   1.079       .  S
C215        C216   1.416       .  A
C216        C217   1.406       .  A
C216       Br223   1.922       .  S
C217        C218   1.417       .  A
C217        H222   1.083       .  S
C218        C219   1.403       .  A
C219       Br220   1.921       .  S
C224        C225   1.392       .  A
C224        C229   1.376       .  A
C224        H231   1.080       .  S
C225        C226   1.398       .  A
C226        C227   1.359       .  A
C226       Br233   1.913       .  S
C227        C228   1.399       .  A
C227        H232   1.065       .  S
C228        C229   1.441       .  A
C229       Br230   1.934       .  S
C234        C235   1.370       .  A
C234        C239   1.375       .  A
C234        H241   1.085       .  S
C235       C1328   1.439       .  A
C236        C237   1.426       .  A
C236       C1327   1.439       .  A
C236       Br243   1.920       .  S
C237        C238   1.407       .  A
C237        H242   1.075       .  S
C238       C1093   1.614       .  S
C238       C1331   1.444   1_455  A
C239       C1330   1.444       .  A
C239       Br240   1.888       .  S
C244        C249   1.379       .  A
C244       C1337   1.377       .  A
C244        H251   1.088       .  S
C245        C246   1.411       .  A
C245       C1336   1.377   1_455  A
C246        C247   1.410       .  A
C246       Br253   1.915       .  S
C247        C248   1.417       .  A
C247        H252   1.081       .  S
C248       C1093   1.573       .  S
C248       C1341   1.459   1_455  A
C249       C1340   1.459       .  A
C249       Br250   1.937       .  S
C254        C255   1.410       .  A
C254        C259   1.361       .  A
C254        H261   1.074       .  S
C255       C1093   1.543       .  S
C255        C256   1.447       .  A
C256        C257   1.395       .  A
C256       Br263   1.916       .  S
C257        C258   1.410       .  A
C257        H262   1.077       .  S
C258        C259   1.379       .  A
C259       Br260   1.938       .  S
C264        C265   1.404       .  A
C264        C269   1.385       .  A
C264        H271   1.073       .  S
C265        C266   1.407       .  A
C266        C267   1.359       .  A
C266       Br273   1.936       .  S
C267        C268   1.420       .  A
C267        H272   1.077       .  S
C268        C269   1.419       .  A
C269       Br270   1.905       .  S
C274       C1603   1.614       .  S
C274       C1613   1.573       .  S
C274       C1620   1.543       .  S
C274        C538   1.510       .  S
C275        C478   1.596       .  S
C275        C488   1.561       .  S
C275        C498   1.508       .  S
C275        C531   1.546       .  S
C276        C448   1.580       .  S
C276        C458   1.543       .  S
C276        C468   1.502       .  S
C276        C501   1.521       .  S
C277        C418   1.555       .  S
C277        C428   1.608       .  S
C277        C438   1.534   1_455  S
C277        C471   1.499       .  S
C278        C388   1.577       .  S
C278        C401   1.536       .  S
C278        C408   1.551       .  S
C278        C441   1.566       .  S
C279        C368   1.588       .  S
C279        C378   1.603       .  S
C279        C411   1.536       .  S
C279        C541   1.538       .  S
O280        C288   1.269       .  A
O280       Co300   1.978       .  S
O281        C289   1.270       .  A
O281       Co301   1.986       .  S
O282        C290   1.265       .  A
O282       Co302   2.074       .  S
O283       Co849   2.149       .  S
O284       Co301   2.075       .  S
O285        C291   1.276       .  A
O285       Co846   1.923       .  S
O286        C289   1.281       .  A
O286       Co303   2.013       .  S
O287        C288   1.270       .  A
O287       Co302   2.003       .  S
C288        C381   1.499       .  S
C289        C371   1.476       .  S
C290        C320   1.585       .  S
C291        C348   1.526       .  S
O292        C305   1.273       .  A
O292       Co846   2.105       .  S
O293       Co301   1.964       .  S
O294        C307   1.280       .  A
O294       Co302   2.005       .  S
O295        C308   1.254       .  A
O295       Co303   1.938       .  S
O296        C308   1.269       .  A
O296       Co301   1.994       .  S
O297        C307   1.268       .  A
O297       Co300   1.962       .  S
O298       Co849   2.078       .  S
O299        C306   1.320       .  A
O299       Co302   2.136       .  S
Co300       O831   1.923   1_545  S
Co300       O838   2.105   1_545  S
Co300       O304   2.021       .  S
Co302       O304   2.212       .  S
Co303       O829   2.149   1_545  S
Co303       O844   2.078   1_545  S
C305        C335   1.602       .  S
C306        C363   1.547       .  S
C307        C461   1.450       .  S
C308        C451   1.480       .  S
O309       C1409   1.263       .  A
O309       Co329   1.964       .  S
O310       C1410   1.232       .  A
O310       Co330   1.941       .  S
O311        C319   1.290       .  A
O311       Co331   2.037       .  S
O312       Co332   2.056       .  S
O313       Co330   2.013       .  S
O314        C320   1.286       .  A
O314       Co329   2.099       .  S
O315        C318   1.271       .  A
O315       Co332   2.005       .  S
O316        C317   1.270       .  A
O316       Co331   1.978       .  S
C317       O1401   1.263   1_455  A
C317        C518   1.464       .  S
C318       O1402   1.232       .  A
C318        C508   1.496       .  S
C319        C364   1.519       .  S
O321        C334   1.279       .  A
O321       Co329   2.033       .  S
O322       Co330   2.083       .  S
O323        C336   1.277       .  A
O323       Co331   2.018       .  S
O324       C1429   1.266       .  A
O324       Co332   1.938       .  S
O325        C337   1.302       .  A
O325       Co330   2.038       .  S
O326       C1428   1.274       .  A
O326       Co329   1.991       .  S
O327       Co332   2.050       .  S
O328        C335   1.274       .  A
O328       Co331   2.127       .  S
Co329      O1425   2.120       .  S
Co331       O333   2.191   1_455  S
Co332      O1152   2.130       .  S
O333      Co1421   2.120       .  S
O333      Co1151   2.130   1_556  S
C334        C349   1.541   1_556  S
C336       O1418   1.274   1_455  A
C336        C431   1.494       .  S
C337       O1416   1.266   1_455  A
C337        C421   1.452       .  S
O338        C346   1.243       .  A
O338       Co358   1.901       .  S
O339        C347   1.265       .  A
O339       Co359   1.952       .  S
O340        C348   1.281       .  A
O340       Co360   2.019       .  S
O341       Co361   1.936       .  S
O342       Co359   2.048       .  S
O343        C349   1.309   1_556  A
O343       Co358   2.189       .  S
O344        C347   1.279       .  A
O344       Co361   2.002       .  S
O345        C346   1.274       .  A
O345       Co360   2.002       .  S
C346        C398   1.450       .  S
C347        C391   1.466       .  S
O350        C363   1.255       .  A
O350       Co358   1.927       .  S
O351       Co359   2.000       .  S
O352        C365   1.271       .  A
O352       Co360   1.989       .  S
O353        C366   1.265       .  A
O353       Co361   1.997       .  S
O354        C366   1.274       .  A
O354       Co359   1.983       .  S
O355        C365   1.281       .  A
O355       Co358   1.998       .  S
O356       Co361   2.207       .  S
O357        C364   1.274       .  A
O357       Co360   2.052       .  S
Co358       O362   2.041       .  S
Co360       O362   2.102       .  S
C365        C491   1.495       .  S
C366        C481   1.490       .  S
C367        C368   1.431       .  A
C367        C372   1.390       .  A
C367        H374   1.075       .  S
C368        C369   1.423       .  A
C369        C370   1.410       .  A
C369       Br376   1.918   1_545  S
C370        C371   1.402       .  A
C370        H375   1.071       .  S
C371        C372   1.389       .  A
C372       Br373   1.920       .  S
C377        C378   1.407       .  A
C377        C382   1.396       .  A
C377        H384   1.054       .  S
C378        C379   1.452       .  A
C379        C380   1.416       .  A
C379       Br386   1.924   1_545  S
C380        C381   1.400       .  A
C380        H385   1.083       .  S
C381        C382   1.405       .  A
C382       Br383   1.943       .  S
C387        C388   1.412       .  A
C387        C392   1.400       .  A
C387        H394   1.065       .  S
C388        C389   1.436       .  A
C389        C390   1.401       .  A
C389       Br396   1.920       .  S
C390        C391   1.401       .  A
C390        H395   1.085       .  S
C391        C392   1.391       .  A
C392       Br393   1.918       .  S
C397        C398   1.372       .  A
C397        C402   1.376       .  A
C397        H404   1.084       .  S
C398        C399   1.417       .  A
C399        C400   1.392       .  A
C399       Br406   1.913       .  S
C400        C401   1.394       .  A
C400        H405   1.081       .  S
C401        C402   1.447       .  A
C402       Br403   1.919       .  S
C407        C954   1.387       .  A
C407        C412   1.381   1_565  A
C407        H414   1.063       .  S
C408        C953   1.387       .  A
C408        C409   1.437       .  A
C409        C956   1.376       .  A
C409       Br416   1.930       .  S
C410        C955   1.376       .  A
C410        C411   1.392   1_565  A
C410        H415   1.075       .  S
C411        C412   1.429       .  A
C412      Br1505   1.889       .  S
Br413      C1504   1.889       .  S
C417       C1510   1.401       .  A
C417        C422   1.380       .  A
C417        H424   1.077       .  S
C418       C1509   1.401   1_455  A
C418        C419   1.454       .  A
C419        C420   1.385       .  A
C419       Br426   1.942       .  S
C420        C421   1.379       .  A
C420        H425   1.085       .  S
C421       C1514   1.416   1_455  A
C422       C1513   1.416       .  A
C422       Br423   1.928       .  S
C427        C428   1.429       .  A
C427        C432   1.399       .  A
C427        H434   1.079   1_455  S
C428        C429   1.421       .  A
C429        C430   1.406       .  A
C429       Br436   1.907       .  S
C430        C431   1.405       .  A
C430        H435   1.071       .  S
C431        C432   1.400       .  A
C432       Br433   1.920   1_455  S
C437       C1530   1.397       .  A
C437        C442   1.350       .  A
C437        H444   1.081       .  S
C438       C1529   1.397       .  A
C438       C1531   1.420       .  A
C439       C1530   1.420       .  A
C439        C440   1.402       .  A
C439      Br1538   1.911       .  S
C440        C441   1.411       .  A
C440        H445   1.081       .  S
C441        C442   1.437       .  A
C442       Br443   1.941       .  S
Br446      C1531   1.911       .  S
C447        C448   1.405       .  A
C447        C452   1.389       .  A
C447       H1000   1.068       .  S
C448        C449   1.436       .  A
C449        C450   1.404       .  A
C449       Br456   1.898       .  S
C450        C451   1.391       .  A
C450        H455   1.084       .  S
C451        C452   1.412       .  A
C452       Br999   1.939   1_545  S
Br453       C998   1.939       .  S
H454        C993   1.068       .  S
C457        C458   1.429       .  A
C457        C462   1.389       .  A
C457        H464   1.077   1_545  S
C458        C459   1.408       .  A
C459        C460   1.388       .  A
C459       Br466   1.925       .  S
C460        C461   1.393       .  A
C460        H465   1.060       .  S
C461        C462   1.387       .  A
C462       Br463   1.918   1_545  S
C467        C468   1.416       .  A
C467        C472   1.385   1_545  A
C467        H474   1.077       .  S
C468       C1015   1.414   1_545  A
C469       C1014   1.414       .  A
C469        C470   1.346       .  A
C469       Br476   1.946       .  S
C470        C471   1.408       .  A
C470        H475   1.078       .  S
C471       C1018   1.415       .  A
C472       C1017   1.415       .  A
C472       Br473   1.916   1_565  S
C477        C478   1.414       .  A
C477        C482   1.416       .  A
C477        H484   1.075       .  S
C478        C479   1.445       .  A
C479        C480   1.387       .  A
C479       Br486   1.919       .  S
C480        C481   1.384       .  A
C480        H485   1.085       .  S
C481        C482   1.416       .  A
C482       Br483   1.920       .  S
C487        C488   1.431       .  A
C487        C492   1.396       .  A
C487        H494   1.079       .  S
C488        C489   1.416       .  A
C489        C490   1.406       .  A
C489       Br496   1.922       .  S
C490        C491   1.417       .  A
C490        H495   1.083       .  S
C491        C492   1.403       .  A
C492       Br493   1.921       .  S
C497        C498   1.392       .  A
C497        C502   1.376       .  A
C497        H504   1.080       .  S
C498        C499   1.398       .  A
C499        C500   1.359       .  A
C499       Br506   1.913       .  S
C500        C501   1.399       .  A
C500        H505   1.065       .  S
C501        C502   1.441       .  A
C502       Br503   1.934       .  S
C507        C508   1.370       .  A
C507        C512   1.375       .  A
C507        H514   1.085       .  S
C508       C1601   1.439       .  A
C509       C1600   1.439       .  A
C509        C510   1.426       .  A
C509       Br516   1.920       .  S
C510        C511   1.407       .  A
C510        H515   1.075       .  S
C511       C1366   1.614       .  S
C511       C1604   1.444   1_455  A
C512       C1603   1.444       .  A
C512       Br513   1.888       .  S
C517       C1610   1.377       .  A
C517        C522   1.379       .  A
C517        H524   1.088       .  S
C518       C1609   1.377   1_455  A
C518        C519   1.411       .  A
C519        C520   1.410       .  A
C519       Br526   1.915       .  S
C520        C521   1.417       .  A
C520        H525   1.081       .  S
C521       C1366   1.573       .  S
C521       C1614   1.459   1_455  A
C522       C1613   1.459       .  A
C522       Br523   1.937       .  S
C527        C528   1.410       .  A
C527        C532   1.361       .  A
C527        H534   1.074       .  S
C528       C1366   1.543       .  S
C528        C529   1.447       .  A
C529        C530   1.395       .  A
C529       Br536   1.916       .  S
C530        C531   1.410       .  A
C530        H535   1.077       .  S
C531        C532   1.379       .  A
C532       Br533   1.938       .  S
C537        C538   1.404       .  A
C537        C542   1.385       .  A
C537        H544   1.073       .  S
C538        C539   1.407       .  A
C539        C540   1.359       .  A
C539       Br546   1.936       .  S
C540        C541   1.420       .  A
C540        H545   1.077       .  S
C541        C542   1.419       .  A
C542       Br543   1.905       .  S
C547       C1876   1.614       .  S
C547       C1886   1.573       .  S
C547       C1893   1.543       .  S
C547        C811   1.510       .  S
C548        C751   1.596       .  S
C548        C761   1.561       .  S
C548        C771   1.508       .  S
C548        C804   1.546       .  S
C549        C721   1.580       .  S
C549        C731   1.543       .  S
C549        C741   1.502       .  S
C549        C774   1.521       .  S
C550        C691   1.555       .  S
C550        C701   1.608       .  S
C550        C711   1.534   1_455  S
C550        C744   1.499       .  S
C551        C661   1.577       .  S
C551        C674   1.536       .  S
C551        C681   1.551       .  S
C551        C714   1.566       .  S
C552        C641   1.588       .  S
C552        C651   1.603       .  S
C552        C684   1.536       .  S
C552        C814   1.538       .  S
O553        C561   1.269       .  A
O553       Co573   1.978       .  S
O554        C562   1.270       .  A
O554       Co574   1.986       .  S
O555        C563   1.265       .  A
O555       Co575   2.074       .  S
O556        C837   1.312   1_554  A
O557        C836   1.273   1_554  A
O557       Co574   2.075       .  S
O558        C564   1.276       .  A
O559        C562   1.281       .  A
O559       Co576   2.013       .  S
O560        C561   1.270       .  A
O560       Co575   2.003       .  S
C561        C654   1.499       .  S
C562        C644   1.476       .  S
C563        O830   1.273       .  A
C563        C593   1.585       .  S
C564        O829   1.312       .  A
C564        C621   1.526       .  S
O565        C578   1.273       .  A
O566        C852   1.284   1_554  A
O566       Co574   1.964       .  S
O567        C580   1.280       .  A
O567       Co575   2.005       .  S
O568        C581   1.254       .  A
O568       Co576   1.938       .  S
O569        C581   1.269       .  A
O569       Co574   1.994       .  S
O570        C580   1.268       .  A
O570       Co573   1.962       .  S
O571        C851   1.266   1_554  A
O572        C579   1.320       .  A
O572       Co575   2.136       .  S
Co573       O577   2.021       .  S
Co574       O850   2.033   1_554  S
Co575       O577   2.212       .  S
Co576       O850   2.194   1_554  S
O577       Co847   2.033       .  S
O577       Co849   2.194       .  S
C578        O844   1.266       .  A
C578        C608   1.602       .  S
C579        O839   1.284       .  A
C579        C636   1.547       .  S
C580        C734   1.450       .  S
C581        C724   1.480       .  S
O582       C1682   1.263       .  A
O582       Co602   1.964       .  S
O583       C1683   1.232       .  A
O583       Co603   1.941       .  S
O584        C592   1.290       .  A
O584       Co604   2.037       .  S
O585        C866   1.277   1_554  A
O585       Co605   2.056       .  S
O586        C865   1.281   1_554  A
O586       Co603   2.013       .  S
O587        C593   1.286       .  A
O587       Co602   2.099       .  S
O588        C591   1.271       .  A
O588       Co605   2.005       .  S
O589        C590   1.270       .  A
O589       Co604   1.978       .  S
C590       O1674   1.263   1_455  A
C590        C791   1.464       .  S
C591       O1675   1.232       .  A
C591        C781   1.496       .  S
C592        O859   1.281       .  A
C592        C637   1.519       .  S
C593        O858   1.277       .  A
O594        C607   1.279       .  A
O594       Co602   2.033       .  S
O595        C881   1.269   1_554  A
O595       Co603   2.083       .  S
O596        C609   1.277       .  A
O596       Co604   2.018       .  S
O597       C1702   1.266       .  A
O597       Co605   1.938       .  S
O598        C610   1.302       .  A
O598       Co603   2.038       .  S
O599       C1701   1.274       .  A
O599       Co602   1.991       .  S
O600        C880   1.278   1_554  A
O600       Co605   2.050       .  S
O601        C608   1.274       .  A
O601       Co604   2.127       .  S
Co602      O1698   2.120       .  S
Co603       O879   2.101   1_454  S
Co604       O606   2.191   1_455  S
Co605      O1971   2.130   1_554  S
O606      Co1694   2.120       .  S
O606       Co876   2.101   1_655  S
O606      Co1970   2.130       .  S
C607        O873   1.278       .  A
C607        C622   1.541       .  S
C608        O868   1.269       .  A
C609       O1691   1.274   1_455  A
C609        C704   1.494       .  S
C610       O1689   1.266   1_455  A
C610        C694   1.453       .  S
O611        C619   1.243       .  A
O611       Co631   1.901       .  S
O612        C620   1.265       .  A
O612       Co632   1.952       .  S
O613        C621   1.281       .  A
O613       Co633   2.019       .  S
O614        C895   1.268       .  A
O614       Co634   1.936       .  S
O615        C894   1.277   1_554  A
O615       Co632   2.048       .  S
O616        C622   1.309       .  A
O616       Co631   2.189       .  S
O617        C620   1.279       .  A
O617       Co634   2.002       .  S
O618        C619   1.274       .  A
O618       Co633   2.002       .  S
C619        C671   1.450       .  S
C620        C664   1.466       .  S
C621        O888   1.277       .  A
C622        O887   1.268       .  A
O623        C636   1.255       .  A
O623       Co631   1.927       .  S
O624        C910   1.278   1_554  A
O624       Co632   2.000       .  S
O625        C638   1.271       .  A
O625       Co633   1.989       .  S
O626        C639   1.265       .  A
O626       Co634   1.997       .  S
O627        C639   1.274       .  A
O627       Co632   1.983       .  S
O628        C638   1.281       .  A
O628       Co631   1.998       .  S
O629        C909   1.315   1_554  A
O629       Co634   2.207       .  S
O630        C637   1.274       .  A
O630       Co633   2.052       .  S
Co631       O635   2.041       .  S
Co632       O908   2.063   1_554  S
Co633       O635   2.102       .  S
Co634       O908   2.104   1_554  S
O635       Co905   2.063       .  S
O635       Co907   2.104       .  S
C636        O902   1.315       .  A
C637        O897   1.278       .  A
C638        C764   1.495       .  S
C639        C754   1.490       .  S
C640        C641   1.431       .  A
C640        C645   1.390       .  A
C640        H647   1.075       .  S
C641        C642   1.423       .  A
C642        C643   1.410       .  A
C642       Br649   1.918       .  S
C643        C644   1.402       .  A
C643        H648   1.071       .  S
C644        C645   1.389       .  A
C645       Br646   1.920       .  S
C650        C651   1.407       .  A
C650        C655   1.396       .  A
C650        H657   1.054       .  S
C651        C652   1.452       .  A
C652        C653   1.416       .  A
C652       Br659   1.923       .  S
C653        C654   1.400       .  A
C653        H658   1.083       .  S
C654        C655   1.405       .  A
C655       Br656   1.943       .  S
C660        C661   1.412       .  A
C660        C665   1.400       .  A
C660        H667   1.065       .  S
C661        C662   1.436       .  A
C662        C663   1.401       .  A
C662       Br669   1.920       .  S
C663        C664   1.401       .  A
C663        H668   1.085       .  S
C664        C665   1.391       .  A
C665       Br666   1.918       .  S
C670        C671   1.372       .  A
C670        C675   1.376       .  A
C670        H677   1.084       .  S
C671        C672   1.417       .  A
C672        C673   1.392       .  A
C672       Br679   1.913       .  S
C673        C674   1.394       .  A
C673        H678   1.081       .  S
C674        C675   1.447       .  A
C675       Br676   1.919       .  S
C680        C685   1.381       .  A
C680        H687   1.063       .  S
C681        C682   1.437       .  A
C682       Br689   1.930       .  S
C683        C684   1.392       .  A
C683        H688   1.075       .  S
C684        C685   1.429       .  A
C685      Br1778   1.889       .  S
Br686      C1777   1.889       .  S
C690       C1783   1.401       .  A
C690        C695   1.380       .  A
C690        H697   1.077       .  S
C691       C1782   1.401   1_455  A
C691        C692   1.454       .  A
C692        C693   1.385       .  A
C692       Br699   1.942       .  S
C693        C694   1.379       .  A
C693        H698   1.085       .  S
C694       C1787   1.416   1_455  A
C695       C1786   1.416       .  A
C695       Br696   1.928       .  S
C700        C701   1.429       .  A
C700        C705   1.399       .  A
C700        H707   1.079   1_455  S
C701        C702   1.421       .  A
C702        C703   1.406       .  A
C702       Br709   1.907       .  S
C703        C704   1.405       .  A
C703        H708   1.071       .  S
C704        C705   1.400       .  A
C705       Br706   1.920   1_455  S
C710       C1803   1.397       .  A
C710        C715   1.350       .  A
C710        H717   1.081       .  S
C711       C1802   1.397       .  A
C711       C1804   1.420       .  A
C712       C1803   1.420       .  A
C712        C713   1.402       .  A
C712      Br1811   1.911       .  S
C713        C714   1.411       .  A
C713        H718   1.081       .  S
C714        C715   1.437       .  A
C715       Br716   1.941       .  S
Br719      C1804   1.911       .  S
C720        C721   1.405       .  A
C720        C725   1.389       .  A
C721        C722   1.436       .  A
C722        C723   1.404       .  A
C722       Br729   1.898       .  S
C723        C724   1.391       .  A
C723        H728   1.084       .  S
C724        C725   1.412       .  A
C730        C731   1.429       .  A
C730        C735   1.389       .  A
C730        H737   1.077       .  S
C731        C732   1.408       .  A
C732        C733   1.388       .  A
C732       Br739   1.925       .  S
C733        C734   1.393       .  A
C733        H738   1.060       .  S
C734        C735   1.387       .  A
C735       Br736   1.918       .  S
C740        C741   1.416       .  A
C740        C745   1.385       .  A
C740        H747   1.077       .  S
C742        C743   1.346       .  A
C742       Br749   1.946       .  S
C743        C744   1.408       .  A
C743        H748   1.078       .  S
C745       Br746   1.916       .  S
C750        C751   1.414       .  A
C750        C755   1.416       .  A
C750        H757   1.075       .  S
C751        C752   1.445       .  A
C752        C753   1.387       .  A
C752       Br759   1.919       .  S
C753        C754   1.384       .  A
C753        H758   1.085       .  S
C754        C755   1.416       .  A
C755       Br756   1.920       .  S
C760        C761   1.431       .  A
C760        C765   1.396       .  A
C760        H767   1.079       .  S
C761        C762   1.416       .  A
C762        C763   1.406       .  A
C762       Br769   1.922       .  S
C763        C764   1.417       .  A
C763        H768   1.083       .  S
C764        C765   1.403       .  A
C765       Br766   1.921       .  S
C770        C771   1.392       .  A
C770        C775   1.376       .  A
C770        H777   1.080       .  S
C771        C772   1.398       .  A
C772        C773   1.359       .  A
C772       Br779   1.913       .  S
C773        C774   1.399       .  A
C773        H778   1.065       .  S
C774        C775   1.441       .  A
C775       Br776   1.934       .  S
C780        C781   1.370       .  A
C780        C785   1.375       .  A
C780        H787   1.085       .  S
C781       C1874   1.439       .  A
C782       C1873   1.439       .  A
C782        C783   1.426       .  A
C782       Br789   1.920       .  S
C783        C784   1.407       .  A
C783        H788   1.075       .  S
C784       C1639   1.614       .  S
C784       C1877   1.444   1_455  A
C785       C1876   1.444       .  A
C785       Br786   1.888       .  S
C790       C1883   1.377       .  A
C790        C795   1.379       .  A
C790        H797   1.088       .  S
C791       C1882   1.377   1_455  A
C791        C792   1.411       .  A
C792        C793   1.410       .  A
C792       Br799   1.915       .  S
C793        C794   1.417       .  A
C793        H798   1.081       .  S
C794       C1639   1.573       .  S
C794       C1887   1.459   1_455  A
C795       C1886   1.459       .  A
C795       Br796   1.937       .  S
C800        C801   1.410       .  A
C800        C805   1.361       .  A
C800        H807   1.074       .  S
C801       C1639   1.543       .  S
C801        C802   1.447       .  A
C802        C803   1.395       .  A
C802       Br809   1.916       .  S
C803        C804   1.410       .  A
C803        H808   1.077       .  S
C804        C805   1.379       .  A
C805       Br806   1.938       .  S
C810        C811   1.404       .  A
C810        C815   1.385       .  A
C810        H817   1.073       .  S
C811        C812   1.407       .  A
C812        C813   1.359       .  A
C812       Br819   1.936       .  S
C813        C814   1.420       .  A
C813        H818   1.077       .  S
C814        C815   1.419       .  A
C815       Br816   1.905       .  S
C820       C2149   1.614       .  S
C820       C2159   1.573       .  S
C820       C2166   1.543       .  S
C820       C1084   1.510       .  S
C821       C1024   1.596       .  S
C821       C1034   1.561       .  S
C821       C1044   1.508       .  S
C821       C1077   1.546       .  S
C822        C994   1.580       .  S
C822       C1004   1.543       .  S
C822       C1014   1.502       .  S
C822       C1047   1.521       .  S
C823        C964   1.555       .  S
C823        C974   1.608       .  S
C823        C984   1.534   1_455  S
C823       C1017   1.499       .  S
C824        C934   1.577       .  S
C824        C947   1.536       .  S
C824        C954   1.551       .  S
C824        C987   1.566       .  S
C825        C914   1.588       .  S
C825        C924   1.603       .  S
C825        C957   1.536       .  S
C825       C1087   1.538       .  S
O826        C834   1.269       .  A
O826       Co846   1.978       .  S
O827        C835   1.270       .  A
O827       Co847   1.986       .  S
O828        C836   1.265       .  A
O828       Co848   2.074       .  S
O830       Co847   2.075       .  S
O831        C837   1.276       .  A
O832        C835   1.281       .  A
O832       Co849   2.013       .  S
O833        C834   1.270       .  A
O833       Co848   2.003       .  S
C834        C927   1.499       .  S
C835        C917   1.476       .  S
C836        C866   1.585       .  S
C837        C894   1.526       .  S
O838        C851   1.273       .  A
O839       Co847   1.964       .  S
O840        C853   1.280       .  A
O840       Co848   2.005       .  S
O841        C854   1.254       .  A
O841       Co849   1.938       .  S
O842        C854   1.269       .  A
O842       Co847   1.994       .  S
O843        C853   1.268       .  A
O843       Co846   1.962       .  S
O845        C852   1.320       .  A
O845       Co848   2.136       .  S
Co846       O850   2.021       .  S
Co848       O850   2.212       .  S
C851        C881   1.602       .  S
C852        C909   1.547       .  S
C853       C1007   1.450       .  S
C854        C997   1.480       .  S
O855       C1955   1.263       .  A
O855       Co875   1.964       .  S
O856       C1956   1.232       .  A
O856       Co876   1.941       .  S
O857        C865   1.290       .  A
O857       Co877   2.037       .  S
O858       Co878   2.056       .  S
O859       Co876   2.013       .  S
O860        C866   1.286       .  A
O860       Co875   2.099       .  S
O861        C864   1.271       .  A
O861       Co878   2.005       .  S
O862        C863   1.270       .  A
O862       Co877   1.978       .  S
C863       O1947   1.263   1_455  A
C863       C1064   1.464       .  S
C864       O1948   1.232       .  A
C864       C1054   1.496       .  S
C865        C910   1.519       .  S
O867        C880   1.279       .  A
O867       Co875   2.033       .  S
O868       Co876   2.083       .  S
O869        C882   1.277       .  A
O869       Co877   2.018       .  S
O870       C1975   1.266       .  A
O870       Co878   1.938       .  S
O871        C883   1.302       .  A
O871       Co876   2.038       .  S
O872       C1974   1.274       .  A
O872       Co875   1.991       .  S
O873       Co878   2.050       .  S
O874        C881   1.274       .  A
O874       Co877   2.127       .  S
Co875      O1971   2.120       .  S
Co877       O879   2.191   1_455  S
Co878      O1698   2.130       .  S
O879      Co1967   2.120       .  S
O879      Co1697   2.130   1_556  S
C880        C895   1.541   1_556  S
C882       O1964   1.274   1_455  A
C882        C977   1.494       .  S
C883       O1962   1.266   1_455  A
C883        C967   1.453       .  S
O884        C892   1.243       .  A
O884       Co904   1.901       .  S
O885        C893   1.265       .  A
O885       Co905   1.952       .  S
O886        C894   1.281       .  A
O886       Co906   2.019       .  S
O887       Co907   1.936       .  S
O888       Co905   2.048       .  S
O889        C895   1.309   1_556  A
O889       Co904   2.189       .  S
O890        C893   1.279       .  A
O890       Co907   2.002       .  S
O891        C892   1.274       .  A
O891       Co906   2.002       .  S
C892        C944   1.450       .  S
C893        C937   1.466       .  S
O896        C909   1.255       .  A
O896       Co904   1.927       .  S
O897       Co905   2.000       .  S
O898        C911   1.271       .  A
O898       Co906   1.989       .  S
O899        C912   1.265       .  A
O899       Co907   1.997       .  S
O900        C912   1.274       .  A
O900       Co905   1.983       .  S
O901        C911   1.281       .  A
O901       Co904   1.998       .  S
O902       Co907   2.207       .  S
O903        C910   1.274       .  A
O903       Co906   2.052       .  S
Co904       O908   2.041       .  S
Co906       O908   2.102       .  S
C911       C1037   1.495       .  S
C912       C1027   1.490       .  S
C913        C914   1.431       .  A
C913        C918   1.390       .  A
C913        H920   1.075       .  S
C914        C915   1.423       .  A
C915        C916   1.410       .  A
C915       Br922   1.918       .  S
C916        C917   1.402       .  A
C916        H921   1.071       .  S
C917        C918   1.389       .  A
C918       Br919   1.920       .  S
C923        C924   1.407       .  A
C923        C928   1.396       .  A
C923        H930   1.054       .  S
C924        C925   1.452       .  A
C925        C926   1.416       .  A
C925       Br932   1.923       .  S
C926        C927   1.400       .  A
C926        H931   1.083       .  S
C927        C928   1.405       .  A
C928       Br929   1.943       .  S
C933        C934   1.412       .  A
C933        C938   1.400       .  A
C933        H940   1.065       .  S
C934        C935   1.436       .  A
C935        C936   1.401       .  A
C935       Br942   1.920       .  S
C936        C937   1.401       .  A
C936        H941   1.085       .  S
C937        C938   1.391       .  A
C938       Br939   1.918       .  S
C943        C944   1.372       .  A
C943        C948   1.376       .  A
C943        H950   1.084       .  S
C944        C945   1.417       .  A
C945        C946   1.392       .  A
C945       Br952   1.913       .  S
C946        C947   1.394       .  A
C946        H951   1.081       .  S
C947        C948   1.447       .  A
C948       Br949   1.919       .  S
C953        C958   1.381       .  A
C953        H960   1.063       .  S
C954        C955   1.437       .  A
C955       Br962   1.930       .  S
C956        C957   1.392       .  A
C956        H961   1.075       .  S
C957        C958   1.429       .  A
C958      Br2051   1.889       .  S
Br959      C2050   1.889       .  S
C963       C2056   1.401       .  A
C963        C968   1.380       .  A
C963        H970   1.077       .  S
C964       C2055   1.401   1_455  A
C964        C965   1.454       .  A
C965        C966   1.385       .  A
C965       Br972   1.942       .  S
C966        C967   1.379       .  A
C966        H971   1.085       .  S
C967       C2060   1.416   1_455  A
C968       C2059   1.416       .  A
C968       Br969   1.928       .  S
C973        C974   1.429       .  A
C973        C978   1.399       .  A
C973        H980   1.079   1_455  S
C974        C975   1.421       .  A
C975        C976   1.406       .  A
C975       Br982   1.907       .  S
C976        C977   1.405       .  A
C976        H981   1.071       .  S
C977        C978   1.400       .  A
C978       Br979   1.920   1_455  S
C983       C2076   1.397       .  A
C983        C988   1.350       .  A
C983        H990   1.081       .  S
C984       C2075   1.397       .  A
C984       C2077   1.420       .  A
C985       C2076   1.420       .  A
C985        C986   1.402       .  A
C985      Br2084   1.911       .  S
C986        C987   1.411       .  A
C986        H991   1.081       .  S
C987        C988   1.437       .  A
C988       Br989   1.941       .  S
Br992      C2077   1.911       .  S
C993        C994   1.405       .  A
C993        C998   1.389       .  A
C994        C995   1.436       .  A
C995        C996   1.404       .  A
C995      Br1002   1.898       .  S
C996        C997   1.391       .  A
C996       H1001   1.084       .  S
C997        C998   1.412       .  A
C1003      C1004   1.429       .  A
C1003      C1008   1.389       .  A
C1003      H1010   1.077       .  S
C1004      C1005   1.408       .  A
C1005      C1006   1.388       .  A
C1005     Br1012   1.925       .  S
C1006      C1007   1.393       .  A
C1006      H1011   1.060       .  S
C1007      C1008   1.387       .  A
C1008     Br1009   1.918       .  S
C1013      C1014   1.416       .  A
C1013      C1018   1.385       .  A
C1013      H1020   1.077       .  S
C1015      C1016   1.346       .  A
C1015     Br1022   1.946       .  S
C1016      C1017   1.408       .  A
C1016      H1021   1.078       .  S
C1018     Br1019   1.916       .  S
C1023      C1024   1.414       .  A
C1023      C1028   1.416       .  A
C1023      H1030   1.075       .  S
C1024      C1025   1.445       .  A
C1025      C1026   1.387       .  A
C1025     Br1032   1.919       .  S
C1026      C1027   1.384       .  A
C1026      H1031   1.085       .  S
C1027      C1028   1.416       .  A
C1028     Br1029   1.920       .  S
C1033      C1034   1.431       .  A
C1033      C1038   1.396       .  A
C1033      H1040   1.079       .  S
C1034      C1035   1.416       .  A
C1035      C1036   1.406       .  A
C1035     Br1042   1.922       .  S
C1036      C1037   1.417       .  A
C1036      H1041   1.083       .  S
C1037      C1038   1.403       .  A
C1038     Br1039   1.921       .  S
C1043      C1044   1.392       .  A
C1043      C1048   1.376       .  A
C1043      H1050   1.080       .  S
C1044      C1045   1.398       .  A
C1045      C1046   1.359       .  A
C1045     Br1052   1.913       .  S
C1046      C1047   1.399       .  A
C1046      H1051   1.065       .  S
C1047      C1048   1.441       .  A
C1048     Br1049   1.934       .  S
C1053      C1054   1.370       .  A
C1053      C1058   1.375       .  A
C1053      H1060   1.085       .  S
C1054      C2147   1.439       .  A
C1055      C2146   1.439       .  A
C1055      C1056   1.426       .  A
C1055     Br1062   1.920       .  S
C1056      C1057   1.407       .  A
C1056      H1061   1.075       .  S
C1057      C1912   1.614       .  S
C1057      C2150   1.444   1_455  A
C1058      C2149   1.444       .  A
C1058     Br1059   1.888       .  S
C1063      C2156   1.377       .  A
C1063      C1068   1.379       .  A
C1063      H1070   1.088       .  S
C1064      C2155   1.377   1_455  A
C1064      C1065   1.411       .  A
C1065      C1066   1.410       .  A
C1065     Br1072   1.915       .  S
C1066      C1067   1.417       .  A
C1066      H1071   1.081       .  S
C1067      C1912   1.573       .  S
C1067      C2160   1.459   1_455  A
C1068      C2159   1.459       .  A
C1068     Br1069   1.937       .  S
C1073      C1074   1.410       .  A
C1073      C1078   1.361       .  A
C1073      H1080   1.074       .  S
C1074      C1912   1.543       .  S
C1074      C1075   1.447       .  A
C1075      C1076   1.395       .  A
C1075     Br1082   1.916       .  S
C1076      C1077   1.410       .  A
C1076      H1081   1.077       .  S
C1077      C1078   1.379       .  A
C1078     Br1079   1.938       .  S
C1083      C1084   1.404       .  A
C1083      C1088   1.385       .  A
C1083      H1090   1.073       .  S
C1084      C1085   1.407       .  A
C1085      C1086   1.359       .  A
C1085     Br1092   1.936       .  S
C1086      C1087   1.420       .  A
C1086      H1091   1.077       .  S
C1087      C1088   1.419       .  A
C1088     Br1089   1.905       .  S
C1093      C1357   1.510   1_455  S
C1094      C1297   1.596       .  S
C1094      C1307   1.561       .  S
C1094      C1317   1.508       .  S
C1094      C1350   1.546       .  S
C1095      C1267   1.580       .  S
C1095      C1277   1.543       .  S
C1095      C1287   1.502       .  S
C1095      C1320   1.521       .  S
C1096      C1237   1.555       .  S
C1096      C1247   1.608       .  S
C1096      C1257   1.534       .  S
C1096      C1290   1.499       .  S
C1097      C1207   1.577       .  S
C1097      C1220   1.536       .  S
C1097      C1227   1.551       .  S
C1097      C1260   1.566       .  S
C1098      C1187   1.588       .  S
C1098      C1197   1.603       .  S
C1098      C1230   1.536       .  S
C1098      C1360   1.538       .  S
O1099      C1107   1.269       .  A
O1099     Co1119   1.978       .  S
O1100      C1108   1.270       .  A
O1100     Co1120   1.986       .  S
O1101      C1109   1.265       .  A
O1101     Co1121   2.074       .  S
O1102      C1383   1.312   1_554  A
O1102     Co1668   2.149       .  S
O1103      C1382   1.273   1_554  A
O1103     Co1120   2.075       .  S
O1104      C1110   1.276       .  A
O1104     Co1665   1.923       .  S
O1105      C1108   1.281       .  A
O1105     Co1122   2.013       .  S
O1106      C1107   1.270       .  A
O1106     Co1121   2.003       .  S
C1107      C1200   1.499       .  S
C1108      C1190   1.476       .  S
C1109      O1376   1.273       .  A
C1109      C1139   1.585       .  S
C1110      O1375   1.312       .  A
C1110      C1167   1.526       .  S
O1111      C1124   1.273       .  A
O1111     Co1665   2.105       .  S
O1112      C1398   1.284   1_554  A
O1112     Co1120   1.964       .  S
O1113      C1126   1.280       .  A
O1113     Co1121   2.005       .  S
O1114      C1127   1.254       .  A
O1114     Co1122   1.938       .  S
O1115      C1127   1.269       .  A
O1115     Co1120   1.994       .  S
O1116      C1126   1.268       .  A
O1116     Co1119   1.962       .  S
O1117      C1397   1.266   1_554  A
O1117     Co1668   2.078       .  S
O1118      C1125   1.320       .  A
O1118     Co1121   2.136       .  S
Co1119     O1650   1.923   1_545  S
Co1119     O1657   2.105   1_545  S
Co1119     O1123   2.021       .  S
Co1120     O1396   2.033   1_554  S
Co1121     O1123   2.212       .  S
Co1122     O1648   2.149   1_545  S
Co1122     O1663   2.078   1_545  S
Co1122     O1396   2.194   1_554  S
O1123     Co1393   2.033       .  S
O1123     Co1395   2.194       .  S
C1124      O1390   1.266       .  A
C1124      C1154   1.602       .  S
C1125      O1385   1.284       .  A
C1125      C1182   1.547       .  S
C1126      C1280   1.450       .  S
C1127      C1270   1.480       .  S
O1128     Co1148   1.964       .  S
O1129     Co1149   1.941       .  S
O1130      C1138   1.290       .  A
O1130     Co1150   2.037       .  S
O1131      C1412   1.277   1_554  A
O1131     Co1151   2.056       .  S
O1132      C1411   1.281   1_554  A
O1132     Co1149   2.013       .  S
O1133      C1139   1.286       .  A
O1133     Co1148   2.099       .  S
O1134      C1137   1.271   1_655  A
O1134     Co1151   2.005       .  S
O1135      C1136   1.270       .  A
O1135     Co1150   1.978       .  S
C1136      C1337   1.464       .  S
C1137      C1327   1.496       .  S
C1138      O1405   1.281       .  A
C1138      C1183   1.519       .  S
C1139      O1404   1.277       .  A
O1140      C1153   1.279       .  A
O1140     Co1148   2.033       .  S
O1141      C1427   1.269   1_554  A
O1141     Co1149   2.083       .  S
O1142      C1155   1.277       .  A
O1142     Co1150   2.018       .  S
O1143     Co1151   1.938       .  S
O1144      C1156   1.302       .  A
O1144     Co1149   2.038       .  S
O1145     Co1148   1.991       .  S
O1146      C1426   1.278   1_554  A
O1146     Co1151   2.050       .  S
O1147      C1154   1.274       .  A
O1147     Co1150   2.127       .  S
Co1149     O1425   2.101   1_554  S
Co1150     O1152   2.191       .  S
O1152     Co1422   2.101       .  S
C1153      O1419   1.278       .  A
C1153      C1168   1.541       .  S
C1154      O1414   1.269       .  A
C1155      C1250   1.494       .  S
C1156      C1240   1.453       .  S
O1157      C1165   1.243       .  A
O1157     Co1177   1.901       .  S
O1158      C1166   1.265       .  A
O1158     Co1178   1.952       .  S
O1159      C1167   1.281       .  A
O1159     Co1179   2.019       .  S
O1160      C1441   1.268       .  A
O1160     Co1180   1.936       .  S
O1161      C1440   1.277   1_554  A
O1161     Co1178   2.048       .  S
O1162      C1168   1.309       .  A
O1162     Co1177   2.189       .  S
O1163      C1166   1.279       .  A
O1163     Co1180   2.002       .  S
O1164      C1165   1.274       .  A
O1164     Co1179   2.002       .  S
C1165      C1217   1.450       .  S
C1166      C1210   1.466       .  S
C1167      O1434   1.277       .  A
C1168      O1433   1.268       .  A
O1169      C1182   1.255       .  A
O1169     Co1177   1.927       .  S
O1170      C1456   1.278   1_554  A
O1170     Co1178   2.000       .  S
O1171      C1184   1.271       .  A
O1171     Co1179   1.989       .  S
O1172      C1185   1.265       .  A
O1172     Co1180   1.997       .  S
O1173      C1185   1.274       .  A
O1173     Co1178   1.983       .  S
O1174      C1184   1.281       .  A
O1174     Co1177   1.998       .  S
O1175      C1455   1.315   1_554  A
O1175     Co1180   2.207       .  S
O1176      C1183   1.274       .  A
O1176     Co1179   2.052       .  S
Co1177     O1181   2.041       .  S
Co1178     O1454   2.063   1_554  S
Co1179     O1181   2.102       .  S
Co1180     O1454   2.104   1_554  S
O1181     Co1451   2.063       .  S
O1181     Co1453   2.104       .  S
C1182      O1448   1.315       .  A
C1183      O1443   1.278       .  A
C1184      C1310   1.495       .  S
C1185      C1300   1.490       .  S
C1186      C1187   1.431       .  A
C1186      C1191   1.390       .  A
C1186      H1193   1.075       .  S
C1187      C1188   1.423       .  A
C1188      C1189   1.410       .  A
C1188     Br1195   1.918   1_545  S
C1189      C1190   1.402       .  A
C1189      H1194   1.071       .  S
C1190      C1191   1.389       .  A
C1191     Br1192   1.920       .  S
C1196      C1197   1.407       .  A
C1196      C1201   1.396       .  A
C1196      H1203   1.054       .  S
C1197      C1198   1.452       .  A
C1198      C1199   1.416       .  A
C1198     Br1205   1.923   1_545  S
C1199      C1200   1.400       .  A
C1199      H1204   1.083       .  S
C1200      C1201   1.405       .  A
C1201     Br1202   1.943       .  S
C1206      C1207   1.412       .  A
C1206      C1211   1.400       .  A
C1206      H1213   1.065       .  S
C1207      C1208   1.436       .  A
C1208      C1209   1.401       .  A
C1208     Br1215   1.920       .  S
C1209      C1210   1.401       .  A
C1209      H1214   1.085       .  S
C1210      C1211   1.391       .  A
C1211     Br1212   1.918       .  S
C1216      C1217   1.372       .  A
C1216      C1221   1.376       .  A
C1216      H1223   1.084       .  S
C1217      C1218   1.417       .  A
C1218      C1219   1.392       .  A
C1218     Br1225   1.913       .  S
C1219      C1220   1.394       .  A
C1219      H1224   1.081       .  S
C1220      C1221   1.447       .  A
C1221     Br1222   1.919       .  S
C1226      C1773   1.387       .  A
C1226      C1231   1.381   1_565  A
C1226      H1233   1.063       .  S
C1227      C1772   1.387       .  A
C1227      C1228   1.437       .  A
C1228      C1775   1.376       .  A
C1228     Br1235   1.930       .  S
C1229      C1774   1.376       .  A
C1229      C1230   1.392   1_565  A
C1229      H1234   1.075       .  S
C1230      C1231   1.429       .  A
C1236      C1241   1.380       .  A
C1236      H1243   1.077       .  S
C1237      C1238   1.454       .  A
C1238      C1239   1.385       .  A
C1238     Br1245   1.942       .  S
C1239      C1240   1.379       .  A
C1239      H1244   1.085       .  S
C1241     Br1242   1.928       .  S
C1246      C1247   1.429       .  A
C1246      C1251   1.399       .  A
C1246      H1253   1.079       .  S
C1247      C1248   1.421       .  A
C1248      C1249   1.406       .  A
C1248     Br1255   1.907       .  S
C1249      C1250   1.405       .  A
C1249      H1254   1.071       .  S
C1250      C1251   1.400       .  A
C1251     Br1252   1.920       .  S
C1256      C1261   1.350       .  A
C1256      H1263   1.081       .  S
C1258      C1259   1.402       .  A
C1259      C1260   1.411       .  A
C1259      H1264   1.081       .  S
C1260      C1261   1.437       .  A
C1261     Br1262   1.941       .  S
C1266      C1267   1.405       .  A
C1266      C1271   1.389       .  A
C1266      H1819   1.068       .  S
C1267      C1268   1.436       .  A
C1268      C1269   1.404       .  A
C1268     Br1275   1.898       .  S
C1269      C1270   1.391       .  A
C1269      H1274   1.084       .  S
C1270      C1271   1.412       .  A
C1271     Br1818   1.939   1_545  S
Br1272     C1817   1.939       .  S
H1273      C1812   1.068       .  S
C1276      C1277   1.429       .  A
C1276      C1281   1.389       .  A
C1276      H1283   1.077   1_545  S
C1277      C1278   1.408       .  A
C1278      C1279   1.388       .  A
C1278     Br1285   1.925       .  S
C1279      C1280   1.393       .  A
C1279      H1284   1.060       .  S
C1280      C1281   1.387       .  A
C1281     Br1282   1.918   1_545  S
C1286      C1287   1.416       .  A
C1286      C1291   1.385   1_545  A
C1286      H1293   1.077       .  S
C1287      C1834   1.414   1_545  A
C1288      C1833   1.414       .  A
C1288      C1289   1.346       .  A
C1288     Br1295   1.946       .  S
C1289      C1290   1.408       .  A
C1289      H1294   1.078       .  S
C1290      C1837   1.415       .  A
C1291      C1836   1.415       .  A
C1291     Br1292   1.916   1_565  S
C1296      C1297   1.414       .  A
C1296      C1301   1.416       .  A
C1296      H1303   1.075       .  S
C1297      C1298   1.445       .  A
C1298      C1299   1.387       .  A
C1298     Br1305   1.919       .  S
C1299      C1300   1.384       .  A
C1299      H1304   1.085       .  S
C1300      C1301   1.416       .  A
C1301     Br1302   1.920       .  S
C1306      C1307   1.431       .  A
C1306      C1311   1.396       .  A
C1306      H1313   1.079       .  S
C1307      C1308   1.416       .  A
C1308      C1309   1.406       .  A
C1308     Br1315   1.922       .  S
C1309      C1310   1.417       .  A
C1309      H1314   1.083       .  S
C1310      C1311   1.403       .  A
C1311     Br1312   1.921       .  S
C1316      C1317   1.392       .  A
C1316      C1321   1.376       .  A
C1316      H1323   1.080       .  S
C1317      C1318   1.398       .  A
C1318      C1319   1.359       .  A
C1318     Br1325   1.913       .  S
C1319      C1320   1.399       .  A
C1319      H1324   1.065       .  S
C1320      C1321   1.441       .  A
C1321     Br1322   1.934       .  S
C1326      C1327   1.370   1_655  A
C1326      C1331   1.375       .  A
C1326      H1333   1.085       .  S
C1328      C1329   1.426       .  A
C1328     Br1335   1.920       .  S
C1329      C1330   1.407       .  A
C1329      H1334   1.075       .  S
C1331     Br1332   1.888       .  S
C1336      C1341   1.379       .  A
C1336      H1343   1.088       .  S
C1337      C1338   1.411       .  A
C1338      C1339   1.410       .  A
C1338     Br1345   1.915       .  S
C1339      C1340   1.417       .  A
C1339      H1344   1.081       .  S
C1341     Br1342   1.937       .  S
C1346      C1347   1.410       .  A
C1346      C1351   1.361       .  A
C1346      H1353   1.074       .  S
C1347      C1348   1.447       .  A
C1348      C1349   1.395       .  A
C1348     Br1355   1.916       .  S
C1349      C1350   1.410       .  A
C1349      H1354   1.077       .  S
C1350      C1351   1.379       .  A
C1351     Br1352   1.938       .  S
C1356      C1357   1.404       .  A
C1356      C1361   1.385       .  A
C1356      H1363   1.073       .  S
C1357      C1358   1.407       .  A
C1358      C1359   1.359       .  A
C1358     Br1365   1.936       .  S
C1359      C1360   1.420       .  A
C1359      H1364   1.077       .  S
C1360      C1361   1.419       .  A
C1361     Br1362   1.905       .  S
C1366      C1630   1.510   1_455  S
C1367      C1570   1.596       .  S
C1367      C1580   1.561       .  S
C1367      C1590   1.508       .  S
C1367      C1623   1.546       .  S
C1368      C1540   1.580       .  S
C1368      C1550   1.543       .  S
C1368      C1560   1.502       .  S
C1368      C1593   1.521       .  S
C1369      C1510   1.555       .  S
C1369      C1520   1.608       .  S
C1369      C1530   1.534       .  S
C1369      C1563   1.499       .  S
C1370      C1480   1.577       .  S
C1370      C1493   1.536       .  S
C1370      C1500   1.551       .  S
C1370      C1533   1.566       .  S
C1371      C1460   1.588       .  S
C1371      C1470   1.603       .  S
C1371      C1503   1.536       .  S
C1371      C1633   1.538       .  S
O1372      C1380   1.269       .  A
O1372     Co1392   1.978       .  S
O1373      C1381   1.270       .  A
O1373     Co1393   1.986       .  S
O1374      C1382   1.265       .  A
O1374     Co1394   2.074       .  S
O1375     Co1941   2.149       .  S
O1376     Co1393   2.075       .  S
O1377      C1383   1.276       .  A
O1377     Co1938   1.923       .  S
O1378      C1381   1.281       .  A
O1378     Co1395   2.013       .  S
O1379      C1380   1.270       .  A
O1379     Co1394   2.003       .  S
C1380      C1473   1.499       .  S
C1381      C1463   1.476       .  S
C1382      C1412   1.585       .  S
C1383      C1440   1.526       .  S
O1384      C1397   1.273       .  A
O1384     Co1938   2.105       .  S
O1385     Co1393   1.964       .  S
O1386      C1399   1.280       .  A
O1386     Co1394   2.005       .  S
O1387      C1400   1.254       .  A
O1387     Co1395   1.938       .  S
O1388      C1400   1.269       .  A
O1388     Co1393   1.994       .  S
O1389      C1399   1.268       .  A
O1389     Co1392   1.962       .  S
O1390     Co1941   2.078       .  S
O1391      C1398   1.320       .  A
O1391     Co1394   2.136       .  S
Co1392     O1923   1.923   1_545  S
Co1392     O1930   2.105   1_545  S
Co1392     O1396   2.021       .  S
Co1394     O1396   2.212       .  S
Co1395     O1921   2.149   1_545  S
Co1395     O1936   2.078   1_545  S
C1397      C1427   1.602       .  S
C1398      C1455   1.547       .  S
C1399      C1553   1.450       .  S
C1400      C1543   1.480       .  S
O1401     Co1421   1.964       .  S
O1402     Co1422   1.941       .  S
O1403      C1411   1.290       .  A
O1403     Co1423   2.037       .  S
O1404     Co1424   2.056       .  S
O1405     Co1422   2.013       .  S
O1406      C1412   1.286       .  A
O1406     Co1421   2.099       .  S
O1407      C1410   1.271   1_655  A
O1407     Co1424   2.005       .  S
O1408      C1409   1.270       .  A
O1408     Co1423   1.978       .  S
C1409      C1610   1.464       .  S
C1410      C1600   1.496       .  S
C1411      C1456   1.519       .  S
O1413      C1426   1.279       .  A
O1413     Co1421   2.033       .  S
O1414     Co1422   2.083       .  S
O1415      C1428   1.277       .  A
O1415     Co1423   2.018       .  S
O1416     Co1424   1.938       .  S
O1417      C1429   1.302       .  A
O1417     Co1422   2.038       .  S
O1418     Co1421   1.991       .  S
O1419     Co1424   2.050       .  S
O1420      C1427   1.274       .  A
O1420     Co1423   2.127       .  S
Co1423     O1425   2.191       .  S
C1426      C1441   1.541   1_556  S
C1428      C1523   1.494       .  S
C1429      C1513   1.452       .  S
O1430      C1438   1.243       .  A
O1430     Co1450   1.901       .  S
O1431      C1439   1.265       .  A
O1431     Co1451   1.952       .  S
O1432      C1440   1.281       .  A
O1432     Co1452   2.019       .  S
O1433     Co1453   1.936       .  S
O1434     Co1451   2.048       .  S
O1435      C1441   1.309   1_556  A
O1435     Co1450   2.189       .  S
O1436      C1439   1.279       .  A
O1436     Co1453   2.002       .  S
O1437      C1438   1.274       .  A
O1437     Co1452   2.002       .  S
C1438      C1490   1.450       .  S
C1439      C1483   1.466       .  S
O1442      C1455   1.255       .  A
O1442     Co1450   1.927       .  S
O1443     Co1451   2.000       .  S
O1444      C1457   1.271       .  A
O1444     Co1452   1.989       .  S
O1445      C1458   1.265       .  A
O1445     Co1453   1.997       .  S
O1446      C1458   1.274       .  A
O1446     Co1451   1.983       .  S
O1447      C1457   1.281       .  A
O1447     Co1450   1.998       .  S
O1448     Co1453   2.207       .  S
O1449      C1456   1.274       .  A
O1449     Co1452   2.052       .  S
Co1450     O1454   2.041       .  S
Co1452     O1454   2.102       .  S
C1457      C1583   1.495       .  S
C1458      C1573   1.490       .  S
C1459      C1460   1.431       .  A
C1459      C1464   1.390       .  A
C1459      H1466   1.075       .  S
C1460      C1461   1.423       .  A
C1461      C1462   1.410       .  A
C1461     Br1468   1.918   1_545  S
C1462      C1463   1.402       .  A
C1462      H1467   1.071       .  S
C1463      C1464   1.389       .  A
C1464     Br1465   1.920       .  S
C1469      C1470   1.407       .  A
C1469      C1474   1.396       .  A
C1469      H1476   1.054       .  S
C1470      C1471   1.452       .  A
C1471      C1472   1.416       .  A
C1471     Br1478   1.924   1_545  S
C1472      C1473   1.400       .  A
C1472      H1477   1.083       .  S
C1473      C1474   1.405       .  A
C1474     Br1475   1.943       .  S
C1479      C1480   1.412       .  A
C1479      C1484   1.400       .  A
C1479      H1486   1.065       .  S
C1480      C1481   1.436       .  A
C1481      C1482   1.401       .  A
C1481     Br1488   1.920       .  S
C1482      C1483   1.401       .  A
C1482      H1487   1.085       .  S
C1483      C1484   1.391       .  A
C1484     Br1485   1.918       .  S
C1489      C1490   1.372       .  A
C1489      C1494   1.376       .  A
C1489      H1496   1.084       .  S
C1490      C1491   1.417       .  A
C1491      C1492   1.392       .  A
C1491     Br1498   1.913       .  S
C1492      C1493   1.394       .  A
C1492      H1497   1.081       .  S
C1493      C1494   1.447       .  A
C1494     Br1495   1.919       .  S
C1499      C2046   1.387       .  A
C1499      C1504   1.381   1_565  A
C1499      H1506   1.063       .  S
C1500      C2045   1.387       .  A
C1500      C1501   1.437       .  A
C1501      C2048   1.376       .  A
C1501     Br1508   1.930       .  S
C1502      C2047   1.376       .  A
C1502      C1503   1.392   1_565  A
C1502      H1507   1.075       .  S
C1503      C1504   1.429       .  A
C1509      C1514   1.380       .  A
C1509      H1516   1.077       .  S
C1510      C1511   1.454       .  A
C1511      C1512   1.385       .  A
C1511     Br1518   1.942       .  S
C1512      C1513   1.379       .  A
C1512      H1517   1.085       .  S
C1514     Br1515   1.928       .  S
C1519      C1520   1.429       .  A
C1519      C1524   1.399       .  A
C1519      H1526   1.079       .  S
C1520      C1521   1.421       .  A
C1521      C1522   1.406       .  A
C1521     Br1528   1.907       .  S
C1522      C1523   1.405       .  A
C1522      H1527   1.071       .  S
C1523      C1524   1.400       .  A
C1524     Br1525   1.920       .  S
C1529      C1534   1.350       .  A
C1529      H1536   1.081       .  S
C1531      C1532   1.402       .  A
C1532      C1533   1.411       .  A
C1532      H1537   1.081       .  S
C1533      C1534   1.437       .  A
C1534     Br1535   1.941       .  S
C1539      C1540   1.405       .  A
C1539      C1544   1.389       .  A
C1539      H2092   1.068       .  S
C1540      C1541   1.436       .  A
C1541      C1542   1.404       .  A
C1541     Br1548   1.898       .  S
C1542      C1543   1.391       .  A
C1542      H1547   1.084       .  S
C1543      C1544   1.412       .  A
C1544     Br2091   1.939   1_545  S
Br1545     C2090   1.939       .  S
H1546      C2085   1.068       .  S
C1549      C1550   1.429       .  A
C1549      C1554   1.389       .  A
C1549      H1556   1.077   1_545  S
C1550      C1551   1.408       .  A
C1551      C1552   1.388       .  A
C1551     Br1558   1.925       .  S
C1552      C1553   1.393       .  A
C1552      H1557   1.060       .  S
C1553      C1554   1.387       .  A
C1554     Br1555   1.918   1_545  S
C1559      C1560   1.416       .  A
C1559      C1564   1.385   1_545  A
C1559      H1566   1.077       .  S
C1560      C2107   1.414   1_545  A
C1561      C2106   1.414       .  A
C1561      C1562   1.346       .  A
C1561     Br1568   1.946       .  S
C1562      C1563   1.408       .  A
C1562      H1567   1.078       .  S
C1563      C2110   1.415       .  A
C1564      C2109   1.415       .  A
C1564     Br1565   1.916   1_565  S
C1569      C1570   1.414       .  A
C1569      C1574   1.416       .  A
C1569      H1576   1.075       .  S
C1570      C1571   1.445       .  A
C1571      C1572   1.387       .  A
C1571     Br1578   1.919       .  S
C1572      C1573   1.384       .  A
C1572      H1577   1.085       .  S
C1573      C1574   1.416       .  A
C1574     Br1575   1.920       .  S
C1579      C1580   1.431       .  A
C1579      C1584   1.396       .  A
C1579      H1586   1.079       .  S
C1580      C1581   1.416       .  A
C1581      C1582   1.406       .  A
C1581     Br1588   1.922       .  S
C1582      C1583   1.417       .  A
C1582      H1587   1.083       .  S
C1583      C1584   1.403       .  A
C1584     Br1585   1.921       .  S
C1589      C1590   1.392       .  A
C1589      C1594   1.376       .  A
C1589      H1596   1.080       .  S
C1590      C1591   1.398       .  A
C1591      C1592   1.359       .  A
C1591     Br1598   1.913       .  S
C1592      C1593   1.399       .  A
C1592      H1597   1.065       .  S
C1593      C1594   1.441       .  A
C1594     Br1595   1.934       .  S
C1599      C1600   1.370   1_655  A
C1599      C1604   1.375       .  A
C1599      H1606   1.085       .  S
C1601      C1602   1.426       .  A
C1601     Br1608   1.920       .  S
C1602      C1603   1.407       .  A
C1602      H1607   1.075       .  S
C1604     Br1605   1.888       .  S
C1609      C1614   1.379       .  A
C1609      H1616   1.088       .  S
C1610      C1611   1.411       .  A
C1611      C1612   1.410       .  A
C1611     Br1618   1.915       .  S
C1612      C1613   1.417       .  A
C1612      H1617   1.081       .  S
C1614     Br1615   1.937       .  S
C1619      C1620   1.410       .  A
C1619      C1624   1.361       .  A
C1619      H1626   1.074       .  S
C1620      C1621   1.447       .  A
C1621      C1622   1.395       .  A
C1621     Br1628   1.916       .  S
C1622      C1623   1.410       .  A
C1622      H1627   1.077       .  S
C1623      C1624   1.379       .  A
C1624     Br1625   1.938       .  S
C1629      C1630   1.404       .  A
C1629      C1634   1.385       .  A
C1629      H1636   1.073       .  S
C1630      C1631   1.407       .  A
C1631      C1632   1.359       .  A
C1631     Br1638   1.936       .  S
C1632      C1633   1.420       .  A
C1632      H1637   1.077       .  S
C1633      C1634   1.419       .  A
C1634     Br1635   1.905       .  S
C1639      C1903   1.510   1_455  S
C1640      C1843   1.596       .  S
C1640      C1853   1.561       .  S
C1640      C1863   1.508       .  S
C1640      C1896   1.546       .  S
C1641      C1813   1.580       .  S
C1641      C1823   1.543       .  S
C1641      C1833   1.502       .  S
C1641      C1866   1.521       .  S
C1642      C1783   1.555       .  S
C1642      C1793   1.608       .  S
C1642      C1803   1.534       .  S
C1642      C1836   1.499       .  S
C1643      C1753   1.577       .  S
C1643      C1766   1.536       .  S
C1643      C1773   1.551       .  S
C1643      C1806   1.566       .  S
C1644      C1733   1.588       .  S
C1644      C1743   1.603       .  S
C1644      C1776   1.536       .  S
C1644      C1906   1.538       .  S
O1645      C1653   1.269       .  A
O1645     Co1665   1.978       .  S
O1646      C1654   1.270       .  A
O1646     Co1666   1.986       .  S
O1647      C1655   1.265       .  A
O1647     Co1667   2.074       .  S
O1648      C1929   1.312   1_554  A
O1649      C1928   1.273   1_554  A
O1649     Co1666   2.075       .  S
O1650      C1656   1.276       .  A
O1651      C1654   1.281       .  A
O1651     Co1668   2.013       .  S
O1652      C1653   1.270       .  A
O1652     Co1667   2.003       .  S
C1653      C1746   1.499       .  S
C1654      C1736   1.476       .  S
C1655      O1922   1.273       .  A
C1655      C1685   1.585       .  S
C1656      O1921   1.312       .  A
C1656      C1713   1.526       .  S
O1657      C1670   1.273       .  A
O1658      C1944   1.284   1_554  A
O1658     Co1666   1.964       .  S
O1659      C1672   1.280       .  A
O1659     Co1667   2.005       .  S
O1660      C1673   1.254       .  A
O1660     Co1668   1.938       .  S
O1661      C1673   1.269       .  A
O1661     Co1666   1.994       .  S
O1662      C1672   1.268       .  A
O1662     Co1665   1.962       .  S
O1663      C1943   1.266   1_554  A
O1664      C1671   1.320       .  A
O1664     Co1667   2.136       .  S
Co1665     O1669   2.021       .  S
Co1666     O1942   2.033   1_554  S
Co1667     O1669   2.212       .  S
Co1668     O1942   2.194   1_554  S
O1669     Co1939   2.033       .  S
O1669     Co1941   2.194       .  S
C1670      O1936   1.266       .  A
C1670      C1700   1.602       .  S
C1671      O1931   1.284       .  A
C1671      C1728   1.547       .  S
C1672      C1826   1.450       .  S
C1673      C1816   1.480       .  S
O1674     Co1694   1.964       .  S
O1675     Co1695   1.941       .  S
O1676      C1684   1.290       .  A
O1676     Co1696   2.037       .  S
O1677      C1958   1.277   1_554  A
O1677     Co1697   2.056       .  S
O1678      C1957   1.281   1_554  A
O1678     Co1695   2.013       .  S
O1679      C1685   1.286       .  A
O1679     Co1694   2.099       .  S
O1680      C1683   1.271   1_655  A
O1680     Co1697   2.005       .  S
O1681      C1682   1.270       .  A
O1681     Co1696   1.978       .  S
C1682      C1883   1.464       .  S
C1683      C1873   1.496       .  S
C1684      O1951   1.281       .  A
C1684      C1729   1.519       .  S
C1685      O1950   1.277       .  A
O1686      C1699   1.279       .  A
O1686     Co1694   2.033       .  S
O1687      C1973   1.269   1_554  A
O1687     Co1695   2.083       .  S
O1688      C1701   1.277       .  A
O1688     Co1696   2.018       .  S
O1689     Co1697   1.938       .  S
O1690      C1702   1.302       .  A
O1690     Co1695   2.038       .  S
O1691     Co1694   1.991       .  S
O1692      C1972   1.278   1_554  A
O1692     Co1697   2.050       .  S
O1693      C1700   1.274       .  A
O1693     Co1696   2.127       .  S
Co1695     O1971   2.101   1_554  S
Co1696     O1698   2.191       .  S
O1698     Co1968   2.101       .  S
C1699      O1965   1.278       .  A
C1699      C1714   1.541       .  S
C1700      O1960   1.269       .  A
C1701      C1796   1.494       .  S
C1702      C1786   1.452       .  S
O1703      C1711   1.243       .  A
O1703     Co1723   1.901       .  S
O1704      C1712   1.265       .  A
O1704     Co1724   1.952       .  S
O1705      C1713   1.281       .  A
O1705     Co1725   2.019       .  S
O1706      C1987   1.268       .  A
O1706     Co1726   1.936       .  S
O1707      C1986   1.277   1_554  A
O1707     Co1724   2.048       .  S
O1708      C1714   1.309       .  A
O1708     Co1723   2.189       .  S
O1709      C1712   1.279       .  A
O1709     Co1726   2.002       .  S
O1710      C1711   1.274       .  A
O1710     Co1725   2.002       .  S
C1711      C1763   1.450       .  S
C1712      C1756   1.466       .  S
C1713      O1980   1.277       .  A
C1714      O1979   1.268       .  A
O1715      C1728   1.255       .  A
O1715     Co1723   1.927       .  S
O1716      C2002   1.278   1_554  A
O1716     Co1724   2.000       .  S
O1717      C1730   1.271       .  A
O1717     Co1725   1.989       .  S
O1718      C1731   1.265       .  A
O1718     Co1726   1.997       .  S
O1719      C1731   1.274       .  A
O1719     Co1724   1.983       .  S
O1720      C1730   1.281       .  A
O1720     Co1723   1.998       .  S
O1721      C2001   1.315   1_554  A
O1721     Co1726   2.207       .  S
O1722      C1729   1.274       .  A
O1722     Co1725   2.052       .  S
Co1723     O1727   2.041       .  S
Co1724     O2000   2.063   1_554  S
Co1725     O1727   2.102       .  S
Co1726     O2000   2.104   1_554  S
O1727     Co1997   2.063       .  S
O1727     Co1999   2.104       .  S
C1728      O1994   1.315       .  A
C1729      O1989   1.278       .  A
C1730      C1856   1.495       .  S
C1731      C1846   1.490       .  S
C1732      C1733   1.431       .  A
C1732      C1737   1.390       .  A
C1732      H1739   1.075       .  S
C1733      C1734   1.423       .  A
C1734      C1735   1.410       .  A
C1734     Br1741   1.918       .  S
C1735      C1736   1.402       .  A
C1735      H1740   1.071       .  S
C1736      C1737   1.389       .  A
C1737     Br1738   1.920       .  S
C1742      C1743   1.407       .  A
C1742      C1747   1.396       .  A
C1742      H1749   1.054       .  S
C1743      C1744   1.452       .  A
C1744      C1745   1.416       .  A
C1744     Br1751   1.923       .  S
C1745      C1746   1.400       .  A
C1745      H1750   1.083       .  S
C1746      C1747   1.405       .  A
C1747     Br1748   1.943       .  S
C1752      C1753   1.412       .  A
C1752      C1757   1.400       .  A
C1752      H1759   1.065       .  S
C1753      C1754   1.436       .  A
C1754      C1755   1.401       .  A
C1754     Br1761   1.920       .  S
C1755      C1756   1.401       .  A
C1755      H1760   1.085       .  S
C1756      C1757   1.391       .  A
C1757     Br1758   1.918       .  S
C1762      C1763   1.372       .  A
C1762      C1767   1.376       .  A
C1762      H1769   1.084       .  S
C1763      C1764   1.417       .  A
C1764      C1765   1.392       .  A
C1764     Br1771   1.913       .  S
C1765      C1766   1.394       .  A
C1765      H1770   1.081       .  S
C1766      C1767   1.447       .  A
C1767     Br1768   1.919       .  S
C1772      C1777   1.381       .  A
C1772      H1779   1.063       .  S
C1773      C1774   1.437       .  A
C1774     Br1781   1.930       .  S
C1775      C1776   1.392       .  A
C1775      H1780   1.075       .  S
C1776      C1777   1.429       .  A
C1782      C1787   1.380       .  A
C1782      H1789   1.077       .  S
C1783      C1784   1.454       .  A
C1784      C1785   1.385       .  A
C1784     Br1791   1.942       .  S
C1785      C1786   1.379       .  A
C1785      H1790   1.085       .  S
C1787     Br1788   1.928       .  S
C1792      C1793   1.429       .  A
C1792      C1797   1.399       .  A
C1792      H1799   1.079       .  S
C1793      C1794   1.421       .  A
C1794      C1795   1.406       .  A
C1794     Br1801   1.907       .  S
C1795      C1796   1.405       .  A
C1795      H1800   1.071       .  S
C1796      C1797   1.400       .  A
C1797     Br1798   1.920       .  S
C1802      C1807   1.350       .  A
C1802      H1809   1.081       .  S
C1804      C1805   1.402       .  A
C1805      C1806   1.411       .  A
C1805      H1810   1.081       .  S
C1806      C1807   1.437       .  A
C1807     Br1808   1.941       .  S
C1812      C1813   1.405       .  A
C1812      C1817   1.389       .  A
C1813      C1814   1.436       .  A
C1814      C1815   1.404       .  A
C1814     Br1821   1.898       .  S
C1815      C1816   1.391       .  A
C1815      H1820   1.084       .  S
C1816      C1817   1.412       .  A
C1822      C1823   1.429       .  A
C1822      C1827   1.389       .  A
C1822      H1829   1.077       .  S
C1823      C1824   1.408       .  A
C1824      C1825   1.388       .  A
C1824     Br1831   1.925       .  S
C1825      C1826   1.393       .  A
C1825      H1830   1.060       .  S
C1826      C1827   1.387       .  A
C1827     Br1828   1.918       .  S
C1832      C1833   1.416       .  A
C1832      C1837   1.385       .  A
C1832      H1839   1.077       .  S
C1834      C1835   1.346       .  A
C1834     Br1841   1.946       .  S
C1835      C1836   1.408       .  A
C1835      H1840   1.078       .  S
C1837     Br1838   1.916       .  S
C1842      C1843   1.414       .  A
C1842      C1847   1.416       .  A
C1842      H1849   1.075       .  S
C1843      C1844   1.445       .  A
C1844      C1845   1.387       .  A
C1844     Br1851   1.919       .  S
C1845      C1846   1.384       .  A
C1845      H1850   1.085       .  S
C1846      C1847   1.416       .  A
C1847     Br1848   1.920       .  S
C1852      C1853   1.431       .  A
C1852      C1857   1.396       .  A
C1852      H1859   1.079       .  S
C1853      C1854   1.416       .  A
C1854      C1855   1.406       .  A
C1854     Br1861   1.922       .  S
C1855      C1856   1.417       .  A
C1855      H1860   1.083       .  S
C1856      C1857   1.403       .  A
C1857     Br1858   1.921       .  S
C1862      C1863   1.392       .  A
C1862      C1867   1.376       .  A
C1862      H1869   1.080       .  S
C1863      C1864   1.398       .  A
C1864      C1865   1.359       .  A
C1864     Br1871   1.913       .  S
C1865      C1866   1.399       .  A
C1865      H1870   1.065       .  S
C1866      C1867   1.441       .  A
C1867     Br1868   1.934       .  S
C1872      C1873   1.370   1_655  A
C1872      C1877   1.375       .  A
C1872      H1879   1.085       .  S
C1874      C1875   1.426       .  A
C1874     Br1881   1.920       .  S
C1875      C1876   1.407       .  A
C1875      H1880   1.075       .  S
C1877     Br1878   1.888       .  S
C1882      C1887   1.379       .  A
C1882      H1889   1.088       .  S
C1883      C1884   1.411       .  A
C1884      C1885   1.410       .  A
C1884     Br1891   1.915       .  S
C1885      C1886   1.417       .  A
C1885      H1890   1.081       .  S
C1887     Br1888   1.937       .  S
C1892      C1893   1.410       .  A
C1892      C1897   1.361       .  A
C1892      H1899   1.074       .  S
C1893      C1894   1.447       .  A
C1894      C1895   1.395       .  A
C1894     Br1901   1.916       .  S
C1895      C1896   1.410       .  A
C1895      H1900   1.077       .  S
C1896      C1897   1.379       .  A
C1897     Br1898   1.938       .  S
C1902      C1903   1.404       .  A
C1902      C1907   1.385       .  A
C1902      H1909   1.073       .  S
C1903      C1904   1.407       .  A
C1904      C1905   1.359       .  A
C1904     Br1911   1.936       .  S
C1905      C1906   1.420       .  A
C1905      H1910   1.077       .  S
C1906      C1907   1.419       .  A
C1907     Br1908   1.905       .  S
C1912      C2176   1.510   1_455  S
C1913      C2116   1.596       .  S
C1913      C2126   1.561       .  S
C1913      C2136   1.508       .  S
C1913      C2169   1.546       .  S
C1914      C2086   1.580       .  S
C1914      C2096   1.543       .  S
C1914      C2106   1.502       .  S
C1914      C2139   1.521       .  S
C1915      C2056   1.555       .  S
C1915      C2066   1.608       .  S
C1915      C2076   1.534       .  S
C1915      C2109   1.499       .  S
C1916      C2026   1.577       .  S
C1916      C2039   1.536       .  S
C1916      C2046   1.551       .  S
C1916      C2079   1.566       .  S
C1917      C2006   1.588       .  S
C1917      C2016   1.603       .  S
C1917      C2049   1.536       .  S
C1917      C2179   1.538       .  S
O1918      C1926   1.269       .  A
O1918     Co1938   1.978       .  S
O1919      C1927   1.270       .  A
O1919     Co1939   1.986       .  S
O1920      C1928   1.265       .  A
O1920     Co1940   2.074       .  S
O1922     Co1939   2.075       .  S
O1923      C1929   1.276       .  A
O1924      C1927   1.281       .  A
O1924     Co1941   2.013       .  S
O1925      C1926   1.270       .  A
O1925     Co1940   2.003       .  S
C1926      C2019   1.499       .  S
C1927      C2009   1.476       .  S
C1928      C1958   1.585       .  S
C1929      C1986   1.526       .  S
O1930      C1943   1.273       .  A
O1931     Co1939   1.964       .  S
O1932      C1945   1.280       .  A
O1932     Co1940   2.005       .  S
O1933      C1946   1.254       .  A
O1933     Co1941   1.938       .  S
O1934      C1946   1.269       .  A
O1934     Co1939   1.994       .  S
O1935      C1945   1.268       .  A
O1935     Co1938   1.962       .  S
O1937      C1944   1.320       .  A
O1937     Co1940   2.136       .  S
Co1938     O1942   2.021       .  S
Co1940     O1942   2.212       .  S
C1943      C1973   1.602       .  S
C1944      C2001   1.547       .  S
C1945      C2099   1.450       .  S
C1946      C2089   1.480       .  S
O1947     Co1967   1.964       .  S
O1948     Co1968   1.941       .  S
O1949      C1957   1.290       .  A
O1949     Co1969   2.037       .  S
O1950     Co1970   2.056       .  S
O1951     Co1968   2.013       .  S
O1952      C1958   1.286       .  A
O1952     Co1967   2.099       .  S
O1953      C1956   1.271   1_655  A
O1953     Co1970   2.005       .  S
O1954      C1955   1.270       .  A
O1954     Co1969   1.978       .  S
C1955      C2156   1.464       .  S
C1956      C2146   1.496       .  S
C1957      C2002   1.519       .  S
O1959      C1972   1.279       .  A
O1959     Co1967   2.033       .  S
O1960     Co1968   2.083       .  S
O1961      C1974   1.277       .  A
O1961     Co1969   2.018       .  S
O1962     Co1970   1.938       .  S
O1963      C1975   1.302       .  A
O1963     Co1968   2.038       .  S
O1964     Co1967   1.991       .  S
O1965     Co1970   2.050       .  S
O1966      C1973   1.274       .  A
O1966     Co1969   2.127       .  S
Co1969     O1971   2.191       .  S
C1972      C1987   1.541   1_556  S
C1974      C2069   1.494       .  S
C1975      C2059   1.453       .  S
O1976      C1984   1.243       .  A
O1976     Co1996   1.901       .  S
O1977      C1985   1.265       .  A
O1977     Co1997   1.952       .  S
O1978      C1986   1.281       .  A
O1978     Co1998   2.019       .  S
O1979     Co1999   1.936       .  S
O1980     Co1997   2.048       .  S
O1981      C1987   1.309   1_556  A
O1981     Co1996   2.189       .  S
O1982      C1985   1.279       .  A
O1982     Co1999   2.002       .  S
O1983      C1984   1.274       .  A
O1983     Co1998   2.002       .  S
C1984      C2036   1.450       .  S
C1985      C2029   1.466       .  S
O1988      C2001   1.255       .  A
O1988     Co1996   1.927       .  S
O1989     Co1997   2.000       .  S
O1990      C2003   1.271       .  A
O1990     Co1998   1.989       .  S
O1991      C2004   1.265       .  A
O1991     Co1999   1.997       .  S
O1992      C2004   1.274       .  A
O1992     Co1997   1.983       .  S
O1993      C2003   1.281       .  A
O1993     Co1996   1.998       .  S
O1994     Co1999   2.207       .  S
O1995      C2002   1.274       .  A
O1995     Co1998   2.052       .  S
Co1996     O2000   2.041       .  S
Co1998     O2000   2.102       .  S
C2003      C2129   1.495       .  S
C2004      C2119   1.490       .  S
C2005      C2006   1.431       .  A
C2005      C2010   1.390       .  A
C2005      H2012   1.075       .  S
C2006      C2007   1.423       .  A
C2007      C2008   1.410       .  A
C2007     Br2014   1.918       .  S
C2008      C2009   1.402       .  A
C2008      H2013   1.071       .  S
C2009      C2010   1.389       .  A
C2010     Br2011   1.920       .  S
C2015      C2016   1.407       .  A
C2015      C2020   1.396       .  A
C2015      H2022   1.054       .  S
C2016      C2017   1.452       .  A
C2017      C2018   1.416       .  A
C2017     Br2024   1.923       .  S
C2018      C2019   1.400       .  A
C2018      H2023   1.083       .  S
C2019      C2020   1.405       .  A
C2020     Br2021   1.943       .  S
C2025      C2026   1.412       .  A
C2025      C2030   1.400       .  A
C2025      H2032   1.065       .  S
C2026      C2027   1.436       .  A
C2027      C2028   1.401       .  A
C2027     Br2034   1.920       .  S
C2028      C2029   1.401       .  A
C2028      H2033   1.085       .  S
C2029      C2030   1.391       .  A
C2030     Br2031   1.918       .  S
C2035      C2036   1.372       .  A
C2035      C2040   1.376       .  A
C2035      H2042   1.084       .  S
C2036      C2037   1.417       .  A
C2037      C2038   1.392       .  A
C2037     Br2044   1.913       .  S
C2038      C2039   1.394       .  A
C2038      H2043   1.081       .  S
C2039      C2040   1.447       .  A
C2040     Br2041   1.919       .  S
C2045      C2050   1.381       .  A
C2045      H2052   1.063       .  S
C2046      C2047   1.437       .  A
C2047     Br2054   1.930       .  S
C2048      C2049   1.392       .  A
C2048      H2053   1.075       .  S
C2049      C2050   1.429       .  A
C2055      C2060   1.380       .  A
C2055      H2062   1.077       .  S
C2056      C2057   1.454       .  A
C2057      C2058   1.385       .  A
C2057     Br2064   1.942       .  S
C2058      C2059   1.379       .  A
C2058      H2063   1.085       .  S
C2060     Br2061   1.928       .  S
C2065      C2066   1.429       .  A
C2065      C2070   1.399       .  A
C2065      H2072   1.079       .  S
C2066      C2067   1.421       .  A
C2067      C2068   1.406       .  A
C2067     Br2074   1.907       .  S
C2068      C2069   1.405       .  A
C2068      H2073   1.071       .  S
C2069      C2070   1.400       .  A
C2070     Br2071   1.920       .  S
C2075      C2080   1.350       .  A
C2075      H2082   1.081       .  S
C2077      C2078   1.402       .  A
C2078      C2079   1.411       .  A
C2078      H2083   1.081       .  S
C2079      C2080   1.437       .  A
C2080     Br2081   1.941       .  S
C2085      C2086   1.405       .  A
C2085      C2090   1.389       .  A
C2086      C2087   1.436       .  A
C2087      C2088   1.404       .  A
C2087     Br2094   1.898       .  S
C2088      C2089   1.391       .  A
C2088      H2093   1.084       .  S
C2089      C2090   1.412       .  A
C2095      C2096   1.429       .  A
C2095      C2100   1.389       .  A
C2095      H2102   1.077       .  S
C2096      C2097   1.408       .  A
C2097      C2098   1.388       .  A
C2097     Br2104   1.925       .  S
C2098      C2099   1.393       .  A
C2098      H2103   1.060       .  S
C2099      C2100   1.387       .  A
C2100     Br2101   1.918       .  S
C2105      C2106   1.416       .  A
C2105      C2110   1.385       .  A
C2105      H2112   1.077       .  S
C2107      C2108   1.346       .  A
C2107     Br2114   1.946       .  S
C2108      C2109   1.408       .  A
C2108      H2113   1.078       .  S
C2110     Br2111   1.916       .  S
C2115      C2116   1.414       .  A
C2115      C2120   1.416       .  A
C2115      H2122   1.075       .  S
C2116      C2117   1.445       .  A
C2117      C2118   1.387       .  A
C2117     Br2124   1.919       .  S
C2118      C2119   1.384       .  A
C2118      H2123   1.085       .  S
C2119      C2120   1.416       .  A
C2120     Br2121   1.920       .  S
C2125      C2126   1.431       .  A
C2125      C2130   1.396       .  A
C2125      H2132   1.079       .  S
C2126      C2127   1.416       .  A
C2127      C2128   1.406       .  A
C2127     Br2134   1.922       .  S
C2128      C2129   1.417       .  A
C2128      H2133   1.083       .  S
C2129      C2130   1.403       .  A
C2130     Br2131   1.921       .  S
C2135      C2136   1.392       .  A
C2135      C2140   1.376       .  A
C2135      H2142   1.080       .  S
C2136      C2137   1.398       .  A
C2137      C2138   1.359       .  A
C2137     Br2144   1.913       .  S
C2138      C2139   1.399       .  A
C2138      H2143   1.065       .  S
C2139      C2140   1.441       .  A
C2140     Br2141   1.934       .  S
C2145      C2146   1.370   1_655  A
C2145      C2150   1.375       .  A
C2145      H2152   1.085       .  S
C2147      C2148   1.426       .  A
C2147     Br2154   1.920       .  S
C2148      C2149   1.407       .  A
C2148      H2153   1.075       .  S
C2150     Br2151   1.888       .  S
C2155      C2160   1.379       .  A
C2155      H2162   1.088       .  S
C2156      C2157   1.411       .  A
C2157      C2158   1.410       .  A
C2157     Br2164   1.915       .  S
C2158      C2159   1.417       .  A
C2158      H2163   1.081       .  S
C2160     Br2161   1.937       .  S
C2165      C2166   1.410       .  A
C2165      C2170   1.361       .  A
C2165      H2172   1.074       .  S
C2166      C2167   1.447       .  A
C2167      C2168   1.395       .  A
C2167     Br2174   1.916       .  S
C2168      C2169   1.410       .  A
C2168      H2173   1.077       .  S
C2169      C2170   1.379       .  A
C2170     Br2171   1.938       .  S
C2175      C2176   1.404       .  A
C2175      C2180   1.385       .  A
C2175      H2182   1.073       .  S
C2176      C2177   1.407       .  A
C2177      C2178   1.359       .  A
C2177     Br2184   1.936       .  S
C2178      C2179   1.420       .  A
C2178      H2183   1.077       .  S
C2179      C2180   1.419       .  A
C2180     Br2181   1.905       .  S
