geometry optimzed in LAMMPS
_audit_creation_date              2020-11-30 
_audit_creation_method            'lammps2cif' 
_symmetry_space_group_name_H-M    'P1' 
_symmetry_Int_Tables_number       1 
_symmetry_cell_setting            triclinic 
loop_ 
_symmetry_equiv_pos_as_xyz 
  x,y,z 
_cell_length_a                    49.01792562 
_cell_length_b                    49.20190467517921 
_cell_length_c                    27.956480389950777 
_cell_angle_alpha                 90.82600907744589 
_cell_angle_beta                  90.00814663699124 
_cell_angle_gamma                 119.86871086950852 
loop_ 
_atom_site_label 
_atom_site_type_symbol 
_atom_site_fract_x 
_atom_site_fract_y 
_atom_site_fract_z 
_atom_site_charge 
C1          C  0.49681978  0.17539282  0.28690248     0.86700
C2          C  0.02442361  0.16699812  0.28844406    -0.53500
C3          C  0.02244210  0.14997025  0.24822972     0.09600
C4          C  0.99342358  0.14154727  0.21631710     0.20600
C5          C  0.49292719  0.18788320  0.23914915    -0.54200
C6          C  0.99664836  0.17394405  0.20616386     0.09700
C7          C  0.46892466  0.14184631  0.28853941    -0.53800
C8          C  0.46686052  0.12350755  0.25004878     0.10300
H9          H  0.04394648  0.17566852  0.31371098     0.14800
H10         H  0.99177331  0.12772702  0.18358229     0.00600
H11         H  0.49117231  0.20900169  0.23642855     0.15100
H12         H  0.45177344  0.13355056  0.31717704     0.14900
C13         C  0.15392828  0.18093365  0.29439810     0.86700
C14         C  0.15268510  0.14891694  0.29363775    -0.53500
C15         C  0.13883618  0.13105788  0.25321487     0.09600
C16         C  0.12748613  0.14705055  0.21731362     0.20600
C17         C  0.17056700  0.19666080  0.24816497    -0.54200
C18         C  0.15711879  0.17906300  0.20776582     0.09700
C19         C  0.11975852  0.17285707  0.28681629    -0.53800
C20         C  0.10583454  0.15523243  0.24677706     0.10300
H21         H  0.16205636  0.14121610  0.32233464     0.14800
H22         H  0.11624149  0.13284656  0.18444330     0.00600
H23         H  0.19101177  0.22004071  0.24752708     0.15100
H24         H  0.10758097  0.18069146  0.31094842     0.14900
C25         C  0.16104251  0.01726006  0.28325456     0.86700
C26         C  0.13367939  0.48967106  0.27688133    -0.53500
C27         C  0.11248562  0.48572764  0.24241751     0.09600
C28         C  0.12467761  0.01781915  0.21547776     0.20600
C29         C  0.17115469  0.01374745  0.23364167    -0.54200
C30         C  0.15328248  0.01503680  0.19739361     0.09700
C31         C  0.15924897  0.04759792  0.28236497    -0.53800
C32         C  0.13996012  0.04802215  0.24754142     0.10300
H33         H  0.12793182  0.47363310  0.30645195     0.14800
H34         H  0.10933391  0.01802584  0.18642496     0.00600
H35         H  0.19106920  0.01016577  0.22841457     0.15100
H36         H  0.17212973  0.06708121  0.30727348     0.14900
C37         C  0.00405947  0.35359727  0.30888654     0.86700
C38         C  0.47054936  0.35749625  0.29004779    -0.53500
C39         C  0.47015647  0.37534091  0.25319555     0.09600
C40         C  0.00191163  0.38617973  0.23716797     0.20600
C41         C  0.00300177  0.33920452  0.25922407    -0.54200
C42         C  0.49986387  0.35829139  0.20425262     0.09700
C43         C  0.03269435  0.38710758  0.30651433    -0.53800
C44         C  0.03152436  0.40402267  0.26858281     0.10300
H45         H  0.45153357  0.34649916  0.31556471     0.14800
H46         H  0.00095817  0.40001607  0.20678672     0.00600
H47         H  0.00273501  0.31715680  0.25497697     0.15100
H48         H  0.05257831  0.39599327  0.33106134     0.14900
C49         C  0.34221079  0.36469276  0.29778433     0.86700
C50         C  0.35190068  0.39928186  0.29626216    -0.53500
C51         C  0.36800496  0.41412461  0.25681198     0.09600
C52         C  0.37312332  0.39275405  0.22108622     0.20600
C53         C  0.32336710  0.35031470  0.25109120    -0.54200
C54         C  0.33946775  0.36483407  0.21017036     0.09700
C55         C  0.37276122  0.36388191  0.29160517    -0.53800
C56         C  0.38911669  0.37852381  0.25174669     0.10300
H57         H  0.34599058  0.41118915  0.32398907     0.14800
H58         H  0.38657230  0.40503029  0.18879746     0.00600
H59         H  0.29963506  0.33048940  0.25121696     0.15100
H60         H  0.38113826  0.35324761  0.31727741     0.14900
C61         C  0.33510135  0.01058699  0.18897027     0.86700
C62         C  0.34774385  0.48965479  0.20181386    -0.53500
C63         C  0.36485513  0.49288084  0.24155559     0.09600
C64         C  0.36520357  0.01237982  0.26671209     0.20600
C65         C  0.31759451  0.00974842  0.23455128    -0.54200
C66         C  0.33285454  0.01053271  0.27574190     0.09700
C67         C  0.36758138  0.03993315  0.19356391    -0.53800
C68         C  0.38361803  0.04113075  0.23396067     0.10300
H69         H  0.34097394  0.47043753  0.17621142     0.14800
H70         H  0.37806533  0.01312160  0.29985718     0.00600
H71         H  0.29517554  0.00921160  0.23395099     0.15100
H72         H  0.37720461  0.05810292  0.16677475     0.14900
O73         O  0.21629996  0.50600572  0.38368743    -0.79900
O74         O  0.29796810  0.07453880  0.97768161    -0.79900
O75         O  0.23090435  0.06089048  0.99682276    -0.79900
O76         O  0.28930091  0.02568693  0.40186716    -0.79900
O77         O  0.26950746  0.08879001  0.04902148    -0.80000
O78         O  0.26185076  0.48856355  0.39089438    -0.79900
O79         O  0.31505041  0.06748469  0.47395588    -0.79900
O80         O  0.19418873  0.02764570  0.44481985    -0.79900
C81         C  0.19935585  0.02075886  0.40467593     1.09800
C82         C  0.32368507  0.07491276  0.98458229     1.09700
C83         C  0.24945540  0.08703246  0.01874919     1.09800
C84         C  0.27505349  0.00058740  0.37800068     1.09700
O85         O  0.22895536  0.45114999  0.46991593    -0.79900
O86         O  0.23249290  0.03017611  0.08019655    -0.80000
O87         O  0.20116594  0.46538685  0.01311293    -0.79900
O88         O  0.28073543  0.00508990  0.06655429    -0.79900
O89         O  0.29572104  0.05447939  0.07281237    -0.80000
O90         O  0.17785914  0.45629582  0.44641781    -0.79900
O91         O  0.28058735  0.48109064  0.47241093    -0.79900
O92         O  0.18517149  0.01535309  0.05059452    -0.79900
Co93       Co  0.22251930  0.47834398  0.42732484     1.51500
Co94       Co  0.26442270  0.05110230  0.02386765     1.51700
Co95       Co  0.21601246  0.01407042  0.01107388     1.51600
Co96       Co  0.29880669  0.02288075  0.46929202     1.51500
O97         O  0.25334122  0.01316366  0.98379298    -1.41800
C98         C  0.25586626  0.45390392  0.47332137     1.09700
C99         C  0.20339431  0.02278290  0.08622991     1.09800
C100        C  0.16542107  0.45363955  0.48679673     1.09700
C101        C  0.29452888  0.03039563  0.08986324     1.09700
O102        O  0.44125475  0.20561429  0.45160025    -0.79900
O103        O  0.01792736  0.29549874  0.09774433    -0.79900
O104        O  0.98968254  0.22495953  0.08802264    -0.79900
O105        O  0.45423288  0.28405021  0.02250986    -0.79900
O106        O  0.04018060  0.25509683  0.08697372    -0.80000
O107        O  0.44036001  0.25905313  0.45114970    -0.79900
O108        O  0.50750702  0.32326373  0.06113245    -0.79900
O109        O  0.46455159  0.19376359  0.97776593    -0.79900
C110        C  0.43120729  0.19704747  0.49378642     1.09800
C111        C  0.01230851  0.31809478  0.10599657     1.09700
C112        C  0.01598001  0.23370520  0.10697593     1.09800
C113        C  0.43101594  0.26111775  0.49256060     1.09700
O114        O  0.50054764  0.29223793  0.40437913    -0.79900
O115        O  0.05685391  0.27271167  0.98920224    -0.80000
O116        O  0.98413927  0.19140792  0.45891283    -0.79900
O117        O  0.05022611  0.32781611  0.01039403    -0.79000
O118        O  0.07679765  0.31614111  0.06216074    -0.80000
O119        O  0.50303546  0.23631827  0.40561128    -0.79900
O120        O  0.48499719  0.31658268  0.45431161    -0.79900
O121        O  0.03182725  0.22352582  0.01301952    -0.79900
Co122      Co  0.47414763  0.24926631  0.43245359     1.51500
Co123      Co  0.03691429  0.28408027  0.03962200     1.51700
Co124      Co  0.98707821  0.21510960  0.01965706     1.51600
Co125      Co  0.49849657  0.29984446  0.99778186     1.51500
O126        O  0.99765825  0.25882715  0.00150991    -1.41800
C127        C  0.49448336  0.31428749  0.41314682     1.09700
C128        C  0.05431460  0.24591317  0.99033069     1.09800
C129        C  0.49698821  0.20870957  0.41364119     1.09700
C130        C  0.07646488  0.33433180  0.03086963     1.09700
O131        O  0.20447879  0.27524743  0.50231384    -0.79900
O132        O  0.26767109  0.28713284  0.09318108    -0.79900
O133        O  0.19891490  0.23095038  0.07825639    -0.79900
O134        O  0.23960049  0.31235829  0.02062391    -0.79900
O135        O  0.23837764  0.22347220  0.08979674    -0.80000
O136        O  0.23703355  0.31589341  0.43092351    -0.79900
O137        O  0.29942747  0.33268533  0.06149006    -0.79900
O138        O  0.17417979  0.24361751  0.00129632    -0.79900
C139        C  0.17950487  0.24899694  0.49708660     1.09800
C140        C  0.28853981  0.31637671  0.09872741     1.09700
C141        C  0.21325499  0.22166130  0.10466764     1.09800
C142        C  0.25519531  0.33610354  0.46158867     1.09700
O143        O  0.27327652  0.28957280  0.40953804    -0.79900
O144        O  0.26289364  0.22250521  0.99781455    -0.80000
O145        O  0.22779230  0.22159210  0.42155046    -0.79900
O146        O  0.30715742  0.28839740  0.01211560    -0.79900
O147        O  0.30028317  0.25755063  0.07311080    -0.80000
O148        O  0.20927475  0.25260271  0.41058891    -0.79900
O149        O  0.31795076  0.32672285  0.44135296    -0.79900
O150        O  0.21292873  0.19099118  0.01606058    -0.79900
Co151      Co  0.23961483  0.28293486  0.46075513     1.51500
Co152      Co  0.26496712  0.25496071  0.04098706     1.51700
Co153      Co  0.19462884  0.21908090  0.00995029     1.51600
Co154      Co  0.27093835  0.29867456  0.01910150     1.51500
O155        O  0.23588395  0.25763352  0.99334811    -1.41800
C156        C  0.30176232  0.31209116  0.40467369     1.09700
C157        C  0.23935930  0.19536289  0.00121778     1.09800
C158        C  0.21287854  0.23022909  0.39556773     1.09700
C159        C  0.31752338  0.27487384  0.04011205     1.09700
C160        C  0.10381313  0.26678342  0.94372405    -0.13100
C161        C  0.07958372  0.24205892  0.96928832     0.09000
C162        C  0.09168858  0.21806909  0.49733117    -0.13100
C163        C  0.12061503  0.21891633  0.49843602    -0.13100
C164        C  0.14888695  0.24776191  0.49904218     0.09000
C165        C  0.13198525  0.26710989  0.93520013    -0.13100
H166        H  0.10201583  0.28707084  0.93377826     0.13000
H167        H  0.07021047  0.19559906  0.49839305     0.13000
H168        H  0.12086308  0.19703216  0.49919763     0.13000
H169        H  0.15154789  0.28757893  0.91975427     0.13000
C170        C  0.36440352  0.27194488  0.06666142    -0.13100
C171        C  0.34760835  0.27674790  0.03028760     0.09000
C172        C  0.35287885  0.25387917  0.46468450    -0.13100
C173        C  0.38037368  0.25253050  0.45937290    -0.13100
C174        C  0.39924289  0.25621419  0.49937204     0.09000
C175        C  0.39212262  0.27180555  0.05604929    -0.13100
H176        H  0.35599479  0.26819921  0.10327637     0.13000
H177        H  0.33950216  0.25246784  0.43293997     0.13000
H178        H  0.38769597  0.25033542  0.42365367     0.13000
H179        H  0.40485841  0.26792067  0.08421761     0.13000
C180        C  0.28267677  0.42206578  0.48964255    -0.13100
C181        C  0.25704398  0.42437174  0.47221700     0.09000
C182        C  0.23124576  0.39751347  0.45179713    -0.13100
C183        C  0.23098187  0.36919650  0.44844826    -0.13100
C184        C  0.25626327  0.36658775  0.46606178     0.09000
C185        C  0.28211149  0.39317588  0.48712902    -0.13100
H186        H  0.30285218  0.44237350  0.50547027     0.13000
H187        H  0.21119099  0.39840943  0.43748826     0.13000
H188        H  0.21070232  0.34916278  0.43225634     0.13000
H189        H  0.30196566  0.39171342  0.50086475     0.13000
C190        C  0.22059490  0.11247415  0.98806774    -0.13100
C191        C  0.24824983  0.11503113  0.00707695     0.09000
C192        C  0.27442202  0.14455994  0.01668908    -0.13100
C193        C  0.27235699  0.17130739  0.01013411    -0.13100
C194        C  0.24381411  0.16857901  0.99522153     0.09000
C195        C  0.21825495  0.13924780  0.98268279    -0.13100
H196        H  0.20030198  0.08978169  0.98002689     0.13000
H197        H  0.29607569  0.14692978  0.03088957     0.13000
H198        H  0.29224524  0.19384601  0.02026302     0.13000
H199        H  0.19611926  0.13698330  0.97095969     0.13000
C200        C  0.16015933  0.40121668  0.03130104    -0.13100
C201        C  0.13855612  0.42394240  0.49829731     0.09000
C202        C  0.11716198  0.40620321  0.46188036    -0.13100
C203        C  0.09224421  0.37680782  0.47161959    -0.13100
C204        C  0.10594139  0.36166793  0.01549363     0.09000
C205        C  0.13290877  0.37410015  0.04464177    -0.13100
H206        H  0.18033436  0.41118053  0.05519097     0.13000
H207        H  0.11980281  0.41513428  0.42591886     0.13000
H208        H  0.07581294  0.36312092  0.44320348     0.13000
H209        H  0.13259223  0.36351605  0.07851731     0.13000
C210        C  0.35280087  0.13303521  0.98731604    -0.13100
C211        C  0.35339770  0.10487940  0.98393815     0.09000
C212        C  0.38241500  0.10564387  0.98600991    -0.13100
C213        C  0.41044037  0.13423030  0.98997972    -0.13100
C214        C  0.39887543  0.17225646  0.50262314     0.09000
C215        C  0.37697507  0.15994359  0.46511843    -0.13100
H216        H  0.33076364  0.13308893  0.98691361     0.13000
H217        H  0.38343868  0.08414241  0.98442889     0.13000
H218        H  0.43256298  0.13432494  0.99019790     0.13000
H219        H  0.38217067  0.17096872  0.43049674     0.13000
C220        C  0.31756969  0.00940828  0.14456163    -0.16200
C221        C  0.31073061  0.03196320  0.13456010    -0.31400
H222        H  0.31502927  0.48956088  0.12868248     0.12800
H223        H  0.31858104  0.05227490  0.15818708     0.13400
C224        C  0.31951203  0.01098276  0.32374894    -0.16200
C225        C  0.28804883  0.99732248  0.33167393    -0.31400
H226        H  0.33593709  0.02307129  0.35299224     0.12800
H227        H  0.29625390  0.53555208  0.31223027     0.13400
C228        C  0.32695920  0.35486041  0.15964798    -0.16200
C229        C  0.29873531  0.32941807  0.14837168    -0.31400
H230        H  0.34244732  0.36810076  0.13074376     0.12800
H231        H  0.28354926  0.31521429  0.17674987     0.13400
C232        C  0.32589776  0.35099003  0.34419616    -0.16200
C233        C  0.31497617  0.32126697  0.35670126    -0.31400
H234        H  0.32403466  0.36669601  0.37015245     0.12800
H235        H  0.31443577  0.30402313  0.33146986     0.13400
C236        C  0.37583062  0.44621808  0.25033701    -0.13000
C237        C  0.37469086  0.47016023  0.24968883    -0.14600
C238        C  0.00284719  0.34802642  0.17017946    -0.16200
C239        C  0.01041860  0.32635945  0.15623014    -0.31400
H240        H  0.51498657  0.36784963  0.12829858     0.12800
H241        H  0.01618985  0.31402268  0.18249088     0.13400
C242        C  0.50024595  0.33247399  0.32972537    -0.16200
C243        C  0.49801268  0.33734254  0.37652315    -0.31400
H244        H  0.00705468  0.31262723  0.33688247     0.12800
H245        H  0.49624279  0.35761162  0.38787257     0.13400
C246        C  0.44357257  0.37998253  0.24467816    -0.13000
C247        C  0.41945126  0.38108578  0.24302304    -0.14600
C248        C  0.16233812  0.01510090  0.14638894    -0.16200
C249        C  0.19211858  0.02253434  0.13486307    -0.31400
H250        H  0.14485510  0.00961799  0.11855687     0.12800
H251        H  0.21027491  0.03020302  0.16204625     0.13400
C252        C  0.18306162  0.01657354  0.32030661    -0.16200
C253        C  0.18134732  0.02385303  0.36554756    -0.31400
H254        H  0.20042628  0.00998871  0.31018171     0.12800
H255        H  0.16309862  0.52717619  0.36153952     0.13400
C256        C  0.08097491  0.45877124  0.24494019    -0.13000
C257        C  0.05757219  0.43440552  0.25516542    -0.14600
C258        C  0.20076101  0.20850533  0.15180059    -0.16200
C259        C  0.16963510  0.19062197  0.15948848    -0.31400
H260        H  0.21750720  0.21254591  0.18027267     0.12800
H261        H  0.15308523  0.18395531  0.12983377     0.13400
C262        C  0.19919951  0.21287834  0.35027268    -0.16200
C263        C  0.16884836  0.20160804  0.33850238    -0.31400
H264        H  0.21315744  0.20562023  0.32918966     0.12800
H265        H  0.15450915  0.20755978  0.36121578     0.13400
C266        C  0.13594460  0.07543403  0.24271564    -0.13000
C267        C  0.13604412  0.10026357  0.24523087    -0.14600
C268        C  0.99871025  0.18752038  0.15831831    -0.16200
C269        C  0.01812911  0.21846540  0.15064460    -0.31400
H270        H  0.98323698  0.17235590  0.12995538     0.12800
H271        H  0.51833935  0.17591313  0.11093955     0.13400
C272        C  0.49926534  0.18927412  0.37458936    -0.16200
C273        C  0.49876019  0.19640818  0.32845762    -0.31400
H274        H  0.99501059  0.16259032  0.38813029     0.12800
H275        H  0.49829016  0.21772031  0.32029902     0.13400
C276        C  0.04824498  0.14490149  0.23569609    -0.13000
C277        C  0.07374568  0.14663718  0.23488272    -0.14600
C278        C  0.44005137  0.09193556  0.24479014    -0.13000
C279        C  0.41516923  0.06745851  0.24237748    -0.14600
C280        C  0.49991116  0.17562921  0.80491859     0.86700
C281        C  0.03815618  0.17227815  0.79883285    -0.53500
C282        C  0.03549625  0.15309695  0.76096707     0.09600
C283        C  0.00622497  0.14344065  0.72893513     0.20600
C284        C  0.50336263  0.19347348  0.75922644    -0.54200
C285        C  0.00907993  0.17496757  0.71481489     0.09700
C286        C  0.46990792  0.14378611  0.79796949    -0.53800
C287        C  0.47004817  0.12795028  0.75759185     0.10300
H288        H  0.05771899  0.18172660  0.82409119     0.14800
H289        H  0.00401341  0.12806267  0.69794663     0.00600
H290        H  0.50492586  0.21626819  0.75930001     0.15100
H291        H  0.45044019  0.13456713  0.82287766     0.14900
C292        C  0.16680492  0.16585805  0.78206168     0.86700
C293        C  0.16172920  0.13259779  0.77678572    -0.53500
C294        C  0.14188756  0.11543905  0.74003848     0.09600
C295        C  0.12840284  0.13310190  0.71206011     0.20600
C296        C  0.17777870  0.18019629  0.73268471    -0.54200
C297        C  0.15777825  0.16330771  0.69585913     0.09700
C298        C  0.13377124  0.16168391  0.78688680    -0.53800
C299        C  0.11363209  0.14474844  0.75048791     0.10300
H300        H  0.17361840  0.12375756  0.79918235     0.14800
H301        H  0.11218699  0.11927207  0.68224912     0.00600
H302        H  0.19997928  0.20160764  0.72723266     0.15100
H303        H  0.12727154  0.17235340  0.81571378     0.14900
C304        C  0.16346056  0.00978111  0.79110255     0.86700
C305        C  0.13490784  0.48980809  0.78918138    -0.53500
C306        C  0.11561063  0.48732297  0.75210242     0.09600
C307        C  0.13202808  0.00347655  0.71253564     0.20600
C308        C  0.17702947  0.00232868  0.74726318    -0.54200
C309        C  0.16108839  0.99882339  0.70613362     0.09700
C310        C  0.16177295  0.03902701  0.77871955    -0.53800
C311        C  0.14506517  0.03589933  0.73803911     0.10300
H312        H  0.12754194  0.47265311  0.81739670     0.14800
H313        H  0.11853727  0.00073536  0.67916770     0.00600
H314        H  0.19808810  0.00019805  0.74840979     0.15100
H315        H  0.17198701  0.06005912  0.80122158     0.14900
C316        C  0.00478657  0.35675250  0.80737452     0.86700
C317        C  0.46453672  0.35802226  0.79410749    -0.53500
C318        C  0.46389113  0.37338554  0.75419470     0.09600
C319        C  0.00210401  0.38754736  0.73358388     0.20600
C320        C  0.00381426  0.34141078  0.75879219    -0.54200
C321        C  0.49158789  0.35122875  0.70982419     0.09700
C322        C  0.03293324  0.39011614  0.80407024    -0.53800
C323        C  0.03182142  0.40631496  0.76543491     0.10300
H324        H  0.44595568  0.34916079  0.82047370     0.14800
H325        H  0.00099907  0.40059774  0.70224059     0.00600
H326        H  0.00321185  0.31913719  0.75632714     0.15100
H327        H  0.05271217  0.39957247  0.82894566     0.14900
C328        C  0.33052446  0.35005604  0.79796782     0.86700
C329        C  0.33682870  0.38399513  0.79832096    -0.53500
C330        C  0.35290414  0.40077747  0.75913172     0.09600
C331        C  0.36098216  0.38176356  0.72253692     0.20600
C332        C  0.31351214  0.33621136  0.75035182    -0.54200
C333        C  0.32870563  0.35226179  0.71063467     0.09700
C334        C  0.36295719  0.35294007  0.79195815    -0.53800
C335        C  0.37915520  0.36956434  0.75284683     0.10300
H336        H  0.32886680  0.39369235  0.82660506     0.14800
H337        H  0.37387294  0.39528354  0.69070199     0.00600
H338        H  0.29038549  0.31513902  0.74818328     0.15100
H339        H  0.37238934  0.34287616  0.81676477     0.14900
C340        C  0.33855021  0.00988639  0.69606333     0.86700
C341        C  0.34635112  0.48548671  0.68858093    -0.53500
C342        C  0.36081452  0.48604971  0.73063260     0.09600
C343        C  0.37632684  0.01508848  0.76598485     0.20600
C344        C  0.32528240  0.00917294  0.74607050    -0.54200
C345        C  0.34492451  0.01207151  0.78313792     0.09700
C346        C  0.37026725  0.04061511  0.69565613    -0.53800
C347        C  0.39009783  0.04345796  0.73216800     0.10300
H348        H  0.33703627  0.46567445  0.66362880     0.14800
H349        H  0.39236840  0.01715966  0.79565753     0.00600
H350        H  0.30193945  0.00600617  0.75151801     0.15100
H351        H  0.37618992  0.05877444  0.66943423     0.14900
O352        O  0.23037438  0.51881903  0.89518674    -0.79900
O353        O  0.30975443  0.06691356  0.55261634    -0.79900
O354        O  0.24672744  0.06899136  0.48382070    -0.79900
O355        O  0.30320978  0.00463014  0.92893012    -0.79900
O356        O  0.25779091  0.06963752  0.55974828    -0.80000
O357        O  0.28315325  0.51245438  0.88619825    -0.79900
O358        O  0.32389256  0.05053042  0.99859147    -0.79900
O359        O  0.18567627  0.00596101  0.95756431    -0.79900
C360        C  0.19618530  0.01729436  0.91731165     1.09800
C361        C  0.32091539  0.08167334  0.51377364     1.09700
C362        C  0.25700467  0.08388806  0.52282306     1.09800
C363        C  0.29925077  0.01756902  0.89231737     1.09700
O364        O  0.24785911  0.44997844  0.92501512    -0.79900
O365        O  0.21979686  0.00376421  0.58660533    -0.80000
O366        O  0.17461473  0.47634927  0.51561664    -0.79900
O367        O  0.31724017  0.02155817  0.53289523    -0.79900
O368        O  0.27540200  0.00021731  0.57783665    -0.80000
O369        O  0.19648034  0.45559768  0.93541060    -0.79900
O370        O  0.26056009  0.45474805  0.00169392    -0.79900
O371        O  0.20062789  0.02933264  0.55037846    -0.79900
Co372      Co  0.24065640  0.48612299  0.91325760     1.51500
Co373      Co  0.26474527  0.03293718  0.56420646     1.51700
Co374      Co  0.21936184  0.02401505  0.49242318     1.51600
Co375      Co  0.28934992  0.00561390  0.99814536     1.51500
O376        O  0.25756080  0.01922139  0.49206792    -1.41800
C377        C  0.24713012  0.43793379  0.96536658     1.09700
C378        C  0.19967934  0.01312488  0.58484389     1.09800
C379        C  0.18793913  0.44684257  0.97821921     1.09700
C380        C  0.30378495  0.00800090  0.57109452     1.09700
O381        O  0.43703744  0.21746228  0.99336365    -0.79900
O382        O  0.01685765  0.29190702  0.60419325    -0.79900
O383        O  0.99516493  0.22032050  0.59385454    -0.79900
O384        O  0.45012685  0.27039985  0.52682800    -0.79900
O385        O  0.04473064  0.25290407  0.59635142    -0.80000
O386        O  0.43065591  0.26085221  0.95764236    -0.79900
O387        O  0.50022341  0.31850144  0.56891120    -0.79900
O388        O  0.44982015  0.20742892  0.52865854    -0.79900
C389        C  0.43887156  0.19276940  0.98951619     1.09800
C390        C  0.00672762  0.31159513  0.60911556     1.09700
C391        C  0.02153284  0.22985435  0.61354574     1.09800
C392        C  0.43020933  0.27349227  0.99596992     1.09700
O393        O  0.48465951  0.29391054  0.91591707    -0.79900
O394        O  0.06131987  0.27187565  0.50354509    -0.80000
O395        O  0.98297709  0.19769717  0.95408458    -0.79900
O396        O  0.03788093  0.32241051  0.50614072    -0.79000
O397        O  0.06832632  0.31738999  0.55588532    -0.80000
O398        O  0.45754515  0.22614746  0.90161028    -0.79900
O399        O  0.49606148  0.33299712  0.96742008    -0.79900
O400        O  0.03602923  0.22094853  0.51567530    -0.79900
Co401      Co  0.46591324  0.25383780  0.95692291     1.51500
Co402      Co  0.03416566  0.27564208  0.55028137     1.51700
Co403      Co  0.99085135  0.21114194  0.52411059     1.51600
Co404      Co  0.49381796  0.29625794  0.50796221     1.51500
O405        O  0.99830744  0.25428264  0.50209735    -1.41800
C406        C  0.49132503  0.32254943  0.92471489     1.09700
C407        C  0.06080618  0.24597756  0.50321432     1.09800
C408        C  0.48160675  0.22604301  0.88829439     1.09700
C409        C  0.06408828  0.33375894  0.52722161     1.09700
O410        O  0.18526313  0.25140959  0.92437694    -0.79900
O411        O  0.27590777  0.30143605  0.58765172    -0.79900
O412        O  0.19949012  0.20050828  0.55673094    -0.79900
O413        O  0.27131141  0.32900725  0.49029642    -0.79900
O414        O  0.22186424  0.24539990  0.59669795    -0.80000
O415        O  0.23527524  0.30819123  0.94122453    -0.79900
O416        O  0.31552437  0.32078616  0.53970100    -0.79900
O417        O  0.18060813  0.22440530  0.48499029    -0.79900
C418        C  0.16707662  0.24705339  0.95944210     1.09800
C419        C  0.30422435  0.32164865  0.58011225     1.09700
C420        C  0.20061694  0.21711291  0.59292971     1.09800
C421        C  0.23187017  0.31914458  0.98098858     1.09700
O422        O  0.27799283  0.28601470  0.91351587    -0.79900
O423        O  0.25563139  0.21241924  0.57072864    -0.80000
O424        O  0.18273402  0.19985588  0.94390715    -0.79900
O425        O  0.30645702  0.27035837  0.47729323    -0.79900
O426        O  0.30783478  0.26725587  0.55602377    -0.80000
O427        O  0.22566437  0.22622036  0.90125276    -0.79900
O428        O  0.29211864  0.32586702  0.96227814    -0.79900
O429        O  0.24808689  0.20297536  0.49356057    -0.79900
Co430      Co  0.23208313  0.26731280  0.92397841     1.51500
Co431      Co  0.26416300  0.25725349  0.57469132     1.51700
Co432      Co  0.21606548  0.21471316  0.48955101     1.51600
Co433      Co  0.28733504  0.29697872  0.48280347     1.51500
O434        O  0.24952147  0.25876378  0.50759724    -1.41800
C435        C  0.29545120  0.31497211  0.92273082     1.09700
C436        C  0.25701030  0.19833029  0.53300421     1.09800
C437        C  0.19871108  0.20239377  0.90682012     1.09700
C438        C  0.31758096  0.26506218  0.51462761     1.09700
C439        C  0.11897684  0.27481834  0.49548682    -0.13100
C440        C  0.09062893  0.24605291  0.49622994     0.09000
C441        C  0.08219462  0.21580348  0.98043725    -0.13100
C442        C  0.11034691  0.21625689  0.97217167    -0.13100
C443        C  0.13582735  0.24268846  0.95220196     0.09000
C444        C  0.14774511  0.27566330  0.49724224    -0.13100
H445        H  0.11902457  0.29684387  0.49514903     0.13000
H446        H  0.06371562  0.19627956  0.99929345     0.13000
H447        H  0.11315320  0.19707431  0.98503464     0.13000
H448        H  0.16913242  0.29825787  0.49674069     0.13000
C449        C  0.36117761  0.25969790  0.55059235    -0.13100
C450        C  0.34370375  0.25867373  0.51011143     0.09000
C451        C  0.35857340  0.28121555  0.98315792    -0.13100
C452        C  0.38566615  0.28017282  0.97239185    -0.13100
C453        C  0.40251706  0.27548537  0.00873005     0.09000
C454        C  0.38886651  0.25857601  0.54524228    -0.13100
H455        H  0.35437535  0.26298877  0.58611147     0.13000
H456        H  0.34572448  0.28447591  0.95455736     0.13000
H457        H  0.39351999  0.28306794  0.93556475     0.13000
H458        H  0.40284959  0.26104365  0.57670281     0.13000
C459        C  0.23157147  0.39180752  0.01605727    -0.13100
C460        C  0.23290936  0.40407135  0.97041640     0.09000
C461        C  0.22430327  0.38432384  0.93008318    -0.13100
C462        C  0.21948644  0.35415781  0.93458969    -0.13100
C463        C  0.22377906  0.34395983  0.97930404     0.09000
C464        C  0.22712565  0.36184740  0.02049165    -0.13100
H465        H  0.23676971  0.40626859  0.04808283     0.13000
H466        H  0.22409776  0.39298058  0.89477886     0.13000
H467        H  0.21574505  0.34019856  0.90234641     0.13000
H468        H  0.22956163  0.35411410  0.05551143     0.13000
C469        C  0.27117628  0.13495075  0.48674026    -0.13100
C470        C  0.26455021  0.11655738  0.52738079     0.09000
C471        C  0.26198243  0.12851624  0.57212905    -0.13100
C472        C  0.26242645  0.15704050  0.57527506    -0.13100
C473        C  0.26578261  0.17388335  0.53374606     0.09000
C474        C  0.27215549  0.16362671  0.49000760    -0.13100
H475        H  0.27397521  0.12647111  0.45215204     0.13000
H476        H  0.25717785  0.11473346  0.60411158     0.13000
H477        H  0.25762384  0.16457269  0.60931506     0.13000
H478        H  0.27558440  0.17666284  0.45755597     0.13000
C479        C  0.13511388  0.41235775  0.54457967    -0.13100
C480        C  0.16104676  0.41588041  0.98814059     0.09000
C481        C  0.13475884  0.40247038  0.95761140    -0.13100
C482        C  0.10724593  0.37569203  0.97142642    -0.13100
C483        C  0.08924092  0.36483487  0.51744157     0.09000
C484        C  0.11061220  0.38254069  0.55402757    -0.13100
H485        H  0.15180156  0.42589920  0.57269385     0.13000
H486        H  0.13496741  0.41355947  0.92430352     0.13000
H487        H  0.08686988  0.36621817  0.94795368     0.13000
H488        H  0.10823934  0.37336104  0.58967289     0.13000
C489        C  0.34934239  0.13161061  0.47085587    -0.13100
C490        C  0.34366780  0.11520065  0.51386796     0.09000
C491        C  0.36341328  0.12953701  0.55335808    -0.13100
C492        C  0.39093146  0.15807635  0.54778489    -0.13100
C493        C  0.40975710  0.16239827  0.99262540     0.09000
C494        C  0.38064628  0.16146082  0.99213128    -0.13100
H495        H  0.33367060  0.12127320  0.44034119     0.13000
H496        H  0.35916972  0.11747882  0.58698606     0.13000
H497        H  0.40717466  0.16758098  0.57779242     0.13000
H498        H  0.37932589  0.18279890  0.99391879     0.13000
C499        C  0.31609728  0.00644836  0.65615512    -0.16200
C500        C  0.32311056  0.00589203  0.60978033    -0.31400
H501        H  0.31767957  0.49406867  0.61059967     0.12800
H502        H  0.34558705  0.00798634  0.60041738     0.13400
C503        C  0.33569415  0.01135658  0.83451007    -0.16200
C504        C  0.31768908  0.02381588  0.84760645    -0.31400
H505        H  0.34198837  0.99906102  0.86028161     0.12800
H506        H  0.34277380  0.50003473  0.86008236     0.13400
C507        C  0.31176560  0.34097885  0.66364890    -0.16200
C508        C  0.32439549  0.34268246  0.62020812    -0.31400
H509        H  0.28622835  0.32628073  0.66650421     0.12800
H510        H  0.34987245  0.35641917  0.61567420     0.13400
C511        C  0.31112796  0.32954500  0.83920865    -0.16200
C512        C  0.31761551  0.33627210  0.88613890    -0.31400
H513        H  0.28974376  0.30782187  0.82974295     0.12800
H514        H  0.33765994  0.35853882  0.89737680     0.13400
C515        C  0.35969029  0.43289806  0.75203324    -0.13000
C516        C  0.36242515  0.45849078  0.74500685    -0.14600
C517        C  0.00083482  0.34630653  0.66938111    -0.16200
C518        C  0.00711316  0.32332396  0.65789147    -0.31400
H519        H  0.49849394  0.35580393  0.63180069     0.12800
H520        H  0.01450580  0.31299556  0.68508440     0.13400
C521        C  0.49268926  0.33407157  0.83939981    -0.16200
C522        C  0.49402439  0.34331228  0.88508608    -0.31400
H523        H  0.00706170  0.31602567  0.83768604     0.12800
H524        H  0.49655985  0.36615991  0.89334670     0.13400
C525        C  0.43646869  0.37674239  0.74410783    -0.13000
C526        C  0.41093410  0.37531367  0.74364542    -0.14600
C527        C  0.17388509  0.99258832  0.66197119    -0.16200
C528        C  0.17610998  0.00762447  0.62194581    -0.31400
H529        H  0.18797261  0.98122587  0.66555645     0.12800
H530        H  0.16321863  0.02026306  0.61890701     0.13400
C531        C  0.18311991  0.01355088  0.83411451    -0.16200
C532        C  0.17557070  0.01675681  0.87898296    -0.31400
H533        H  0.20455908  0.01258031  0.82806690     0.12800
H534        H  0.16208251  0.51807403  0.88442705     0.13400
C535        C  0.08359139  0.46083016  0.74897887    -0.13000
C536        C  0.05859598  0.43673387  0.75355200    -0.14600
C537        C  0.18035643  0.20361480  0.63484307    -0.16200
C538        C  0.16552322  0.17299708  0.64530640    -0.31400
H539        H  0.18229521  0.22031504  0.66247154     0.12800
H540        H  0.16245299  0.15550968  0.61842060     0.13400
C541        C  0.18306319  0.17873379  0.86810480    -0.16200
C542        C  0.18933853  0.18591767  0.82175311    -0.31400
H543        H  0.16216523  0.15686564  0.87722561     0.12800
H544        H  0.20951689  0.20832065  0.81251768     0.13400
C545        C  0.13839352  0.06059269  0.72576561    -0.13000
C546        C  0.13722073  0.08463840  0.72745320    -0.14600
C547        C  0.00823965  0.18535563  0.66598906    -0.16200
C548        C  0.02545215  0.21603540  0.65657207    -0.31400
H549        H  0.99231057  0.16864774  0.63942547     0.12800
H550        H  0.53657491  0.23950166  0.69570741     0.13400
C551        C  0.47982961  0.20504544  0.84990076    -0.16200
C552        C  0.50011021  0.19432010  0.84766394    -0.31400
H553        H  0.00232495  0.17103656  0.89509801     0.12800
H554        H  0.51824151  0.20102036  0.87499516     0.13400
C555        C  0.05977520  0.14512542  0.75090160    -0.13000
C556        C  0.08291609  0.14232776  0.74728220    -0.14600
C557        C  0.44380951  0.09705108  0.74592926    -0.13000
C558        C  0.42015786  0.07191820  0.73954913    -0.14600
C559        C  0.50548871  0.68120047  0.29519838     0.86700
C560        C  0.03709704  0.67844118  0.29186479    -0.53500
C561        C  0.03465553  0.65898478  0.25486795     0.09600
C562        C  0.00503982  0.64840111  0.22275903     0.20600
C563        C  0.50704793  0.69564502  0.24724627    -0.54200
C564        C  0.00714072  0.67974273  0.20794080     0.09700
C565        C  0.47498553  0.64942220  0.29340637    -0.53800
C566        C  0.47326636  0.63068604  0.25579964     0.10300
H567        H  0.05660102  0.68823203  0.31725482     0.14800
H568        H  0.00303069  0.63283304  0.19217941     0.00600
H569        H  0.50792409  0.71805292  0.24389288     0.15100
H570        H  0.45622827  0.64254692  0.31927646     0.14900
C571        C  0.16117168  0.66628811  0.30661419     0.86700
C572        C  0.15740833  0.63475801  0.29019637    -0.53500
C573        C  0.14232395  0.62402739  0.24713154     0.09600
C574        C  0.13286931  0.64636297  0.22345867     0.20600
C575        C  0.17784799  0.68850038  0.26565092    -0.54200
C576        C  0.16352410  0.67854035  0.22230199     0.09700
C577        C  0.12749169  0.66151252  0.30505194    -0.53800
C578        C  0.11281564  0.65116949  0.26143764     0.10300
H579        H  0.16560890  0.62178747  0.31124357     0.14800
H580        H  0.12078399  0.63787729  0.18831404     0.00600
H581        H  0.19961020  0.71065503  0.27062621     0.15100
H582        H  0.11656333  0.66712384  0.33437270     0.14900
C583        C  0.16626219  0.51831798  0.27022029     0.86700
C584        C  0.12690405  0.99063670  0.28672001    -0.53500
C585        C  0.10761579  0.99032658  0.25121004     0.09600
C586        C  0.12628633  0.51116398  0.20314475     0.20600
C587        C  0.17653875  0.51433188  0.22124109    -0.54200
C588        C  0.15591758  0.51021002  0.18538160     0.09700
C589        C  0.16096472  0.54623809  0.26639350    -0.53800
C590        C  0.14014226  0.54283970  0.23135043     0.10300
H591        H  0.11895927  0.97283883  0.31402348     0.14800
H592        H  0.10937857  0.50822604  0.17434558     0.00600
H593        H  0.19950149  0.51666679  0.21597250     0.15100
H594        H  0.17300340  0.56711080  0.28907387     0.14900
C595        C  0.99756508  0.85764741  0.30091308     0.86700
C596        C  0.47238640  0.86108380  0.30096108    -0.53500
C597        C  0.47082552  0.87723720  0.26254984     0.09600
C598        C  0.99568888  0.88920292  0.22751388     0.20600
C599        C  0.99923951  0.84389372  0.25203605    -0.54200
C600        C  0.50193285  0.86050104  0.21541963     0.09700
C601        C  0.02475078  0.89177274  0.30018085    -0.53800
C602        C  0.02411141  0.90839855  0.26165075     0.10300
H603        H  0.45348449  0.85001809  0.32665593     0.14800
H604        H  0.99489530  0.90260041  0.19640826     0.00600
H605        H  0.00055022  0.82262423  0.24926681     0.15100
H606        H  0.04365853  0.90141829  0.32654859     0.14900
C607        C  0.34156434  0.85997187  0.31375970     0.86700
C608        C  0.34740840  0.89293145  0.30454926    -0.53500
C609        C  0.35952428  0.90418815  0.26084870     0.09600
C610        C  0.36492792  0.88101013  0.22923350     0.20600
C611        C  0.32038207  0.83992775  0.27198986    -0.54200
C612        C  0.33203231  0.85043236  0.22724562     0.09700
C613        C  0.37322639  0.86185630  0.30523323    -0.53800
C614        C  0.38584698  0.87291601  0.26147641     0.10300
H615        H  0.34194626  0.90624760  0.33035646     0.14800
H616        H  0.37516110  0.89034973  0.19373696     0.00600
H617        H  0.29770612  0.81909052  0.27759903     0.15100
H618        H  0.38506340  0.85560759  0.33214842     0.14900
C619        C  0.33959557  0.51547977  0.19569220     0.86700
C620        C  0.34116613  0.98306337  0.19277168    -0.53500
C621        C  0.35703685  0.98383125  0.23311566     0.09600
C622        C  0.37183988  0.52176023  0.27322941     0.20600
C623        C  0.32246510  0.51539613  0.24148445    -0.54200
C624        C  0.33899184  0.51869268  0.28267826     0.09700
C625        C  0.37134041  0.54611668  0.19790638    -0.53800
C626        C  0.38843703  0.54953298  0.23836056     0.10300
H627        H  0.33342038  0.96440702  0.16595348     0.14800
H628        H  0.38563490  0.52419170  0.30612827     0.00600
H629        H  0.29869966  0.51168337  0.24103701     0.15100
H630        H  0.37981316  0.56320414  0.16951538     0.14900
O631        O  0.21871168  0.01062205  0.40065932    -0.79900
O632        O  0.29801868  0.56735647  0.97637443    -0.79900
O633        O  0.23796209  0.55852622  0.99239360    -0.79900
O634        O  0.28775379  0.53611969  0.41547624    -0.79900
O635        O  0.26956506  0.57667158  0.05464215    -0.80000
O636        O  0.25012652  0.97822560  0.39509967    -0.79900
O637        O  0.32809260  0.54604180  0.48765052    -0.79900
O638        O  0.18147767  0.50850053  0.43010516    -0.79900
C639        C  0.19519047  0.51318151  0.39085939     1.09800
C640        C  0.32397211  0.56771357  0.97898892     1.09700
C641        C  0.25375516  0.58068480  0.02339537     1.09800
C642        C  0.28361124  0.51595047  0.38429414     1.09700
O643        O  0.23395537  0.95556897  0.48926720    -0.79900
O644        O  0.23231158  0.51617165  0.07482257    -0.80000
O645        O  0.19791850  0.96914777  0.02174485    -0.79900
O646        O  0.28355918  0.49992891  0.06792227    -0.79900
O647        O  0.29841384  0.54882996  0.06871273    -0.80000
O648        O  0.18829066  0.95074484  0.42909819    -0.79900
O649        O  0.28351774  0.97633905  0.46575934    -0.79900
O650        O  0.18977858  0.51241715  0.04093675    -0.79900
Co651      Co  0.22676613  0.98450952  0.45007526     1.51500
Co652      Co  0.26530147  0.54158080  0.02197585     1.51700
Co653      Co  0.22095653  0.51063525  0.00301461     1.51600
Co654      Co  0.28311301  0.52348624  0.48480866     1.51500
O655        O  0.25713148  0.50669307  0.97792610    -1.41800
C656        C  0.25814956  0.95315565  0.48110688     1.09700
C657        C  0.20380901  0.51120120  0.07796926     1.09800
C658        C  0.17343444  0.95248380  0.46527119     1.09700
C659        C  0.29704921  0.52599601  0.08928850     1.09700
O660        O  0.44039074  0.70944988  0.44522275    -0.79900
O661        O  0.01374373  0.79546120  0.09412463    -0.79900
O662        O  0.99009062  0.72342512  0.08794590    -0.79900
O663        O  0.45324128  0.77083380  0.03712859    -0.79900
O664        O  0.03973337  0.75780688  0.08691720    -0.80000
O665        O  0.44280681  0.76433467  0.46144152    -0.79900
O666        O  0.50205187  0.82877473  0.06637297    -0.79900
O667        O  0.44408740  0.69967513  0.02117297    -0.79900
C668        C  0.42956717  0.69523275  0.48414610     1.09800
C669        C  0.00709759  0.81759937  0.10060865     1.09700
C670        C  0.01695987  0.73479146  0.10642567     1.09800
C671        C  0.43486813  0.76484651  0.50483393     1.09700
O672        O  0.50368272  0.79728613  0.41402448    -0.79900
O673        O  0.05742637  0.77268524  0.99121716    -0.80000
O674        O  0.99390127  0.70446908  0.45271092    -0.79900
O675        O  0.04594195  0.82715629  0.00682116    -0.79000
O676        O  0.07303003  0.81776758  0.06081148    -0.80000
O677        O  0.50230748  0.73988913  0.40616186    -0.79900
O678        O  0.48810032  0.81843847  0.46879142    -0.79900
O679        O  0.03285202  0.72340095  0.01487103    -0.79900
Co680      Co  0.47445792  0.75371384  0.43452528     1.51500
Co681      Co  0.03456728  0.78410272  0.03772562     1.51700
Co682      Co  0.98735390  0.71328163  0.01952855     1.51600
Co683      Co  0.49913076  0.79578454  0.02557750     1.51500
O684        O  0.99565882  0.75642109  0.99961724    -1.41800
C685        C  0.49742932  0.81848486  0.42623374     1.09700
C686        C  0.05742036  0.74731220  0.99886015     1.09800
C687        C  0.49756161  0.71264340  0.41523238     1.09700
C688        C  0.07216470  0.83548004  0.02926404     1.09700
O689        O  0.19354189  0.76520919  0.44565364    -0.79900
O690        O  0.27179706  0.79399994  0.10729903    -0.79900
O691        O  0.19583991  0.69494186  0.05845148    -0.79900
O692        O  0.26494330  0.82604303  0.00296439    -0.79900
O693        O  0.21742744  0.73575040  0.10776824    -0.80000
O694        O  0.24998959  0.81796139  0.44857203    -0.79900
O695        O  0.30939309  0.81824816  0.05585411    -0.79900
O696        O  0.17644759  0.72332908  0.99483923    -0.79900
C697        C  0.17942490  0.76644344  0.48296306     1.09800
C698        C  0.29899131  0.81638440  0.09807547     1.09700
C699        C  0.19632239  0.70778730  0.09826471     1.09800
C700        C  0.25450039  0.83403294  0.48732821     1.09700
O701        O  0.27904662  0.77894751  0.42041747    -0.79900
O702        O  0.25267533  0.70747017  0.07092334    -0.80000
O703        O  0.18065256  0.71014669  0.46869530    -0.79900
O704        O  0.30496236  0.77075743  0.98937333    -0.79900
O705        O  0.30562412  0.76428497  0.06690202    -0.80000
O706        O  0.22078368  0.72695555  0.42027428    -0.79900
O707        O  0.30357568  0.82363036  0.45783211    -0.79900
O708        O  0.24490227  0.70316426  0.99309615    -0.79900
Co709      Co  0.23692771  0.77178014  0.43729763     1.51500
Co710      Co  0.26061474  0.75113735  0.08462708     1.51700
Co711      Co  0.21210091  0.71351982  0.99418872     1.51600
Co712      Co  0.28320524  0.79556386  0.99663291     1.51500
O713        O  0.24542742  0.75628193  0.01889305    -1.41800
C714        C  0.30077048  0.80692678  0.42128310     1.09700
C715        C  0.25206530  0.69474976  0.03066537     1.09800
C716        C  0.19238129  0.70765770  0.42976974     1.09700
C717        C  0.31706372  0.76545964  0.02554306     1.09700
C718        C  0.11616998  0.77562848  0.00079054    -0.13100
C719        C  0.08755768  0.74716837  0.99737107     0.09000
C720        C  0.09537116  0.74177052  0.46295536    -0.13100
C721        C  0.12437088  0.74337859  0.45789910    -0.13100
C722        C  0.15145751  0.76892316  0.47763384     0.09000
C723        C  0.14462419  0.77587073  0.00623299    -0.13100
H724        H  0.11655449  0.79785073  0.00053144     0.13000
H725        H  0.07422935  0.72110846  0.45035167     0.13000
H726        H  0.12537034  0.72370821  0.44179235     0.13000
H727        H  0.16619557  0.79823850  0.00830006     0.13000
C728        C  0.36432551  0.76466450  0.05985812    -0.13100
C729        C  0.34579628  0.76250732  0.01992260     0.09000
C730        C  0.36051285  0.76755144  0.48580157    -0.13100
C731        C  0.38694426  0.76489231  0.47660500    -0.13100
C732        C  0.40453727  0.76277105  0.51456115     0.09000
C733        C  0.39268039  0.76440494  0.05415822    -0.13100
H734        H  0.35737447  0.76747505  0.09552720     0.13000
H735        H  0.34762565  0.76978777  0.45606582     0.13000
H736        H  0.39423516  0.76569240  0.43982668     0.13000
H737        H  0.40673930  0.76700376  0.08560371     0.13000
C738        C  0.27720871  0.91854177  0.51380859    -0.13100
C739        C  0.25606045  0.92231038  0.48482298     0.09000
C740        C  0.23407206  0.89683183  0.45669636    -0.13100
C741        C  0.23354608  0.86806131  0.45704466    -0.13100
C742        C  0.25434134  0.86406600  0.48673037     0.09000
C743        C  0.27597829  0.88951620  0.51542605    -0.13100
H744        H  0.29456136  0.93801539  0.53530045     0.13000
H745        H  0.21788964  0.89949929  0.43347857     0.13000
H746        H  0.21676432  0.84888663  0.43451320     0.13000
H747        H  0.29254165  0.88717953  0.53821308     0.13000
C748        C  0.24385485  0.61954901  0.98400584    -0.13100
C749        C  0.25508546  0.61070721  0.02306903     0.09000
C750        C  0.26780983  0.63082533  0.06326406    -0.13100
C751        C  0.26800581  0.65899911  0.06530778    -0.13100
C752        C  0.25576499  0.66738431  0.02699848     0.09000
C753        C  0.24441648  0.64795139  0.98578466    -0.13100
H754        H  0.23434667  0.60445287  0.95265806     0.13000
H755        H  0.27684903  0.62442514  0.09386899     0.13000
H756        H  0.27698331  0.67377653  0.09706209     0.13000
H757        H  0.23479283  0.65405700  0.95559568     0.13000
C758        C  0.15453841  0.90492202  0.03814648    -0.13100
C759        C  0.14426903  0.92517347  0.47945315     0.09000
C760        C  0.12395193  0.90360890  0.44514288    -0.13100
C761        C  0.09628109  0.87750151  0.45953245    -0.13100
C762        C  0.10139644  0.86437020  0.01679860     0.09000
C763        C  0.12701167  0.87726644  0.04890138    -0.13100
H764        H  0.17360513  0.91484168  0.06413192     0.13000
H765        H  0.12937830  0.90710338  0.40733651     0.13000
H766        H  0.08074166  0.86082461  0.43275110     0.13000
H767        H  0.12551309  0.86635300  0.08290046     0.13000
C768        C  0.35187902  0.62153166  0.94586602    -0.13100
C769        C  0.35272771  0.59766823  0.97183866     0.09000
C770        C  0.37964468  0.60447516  0.99847021    -0.13100
C771        C  0.40446523  0.63505414  0.00177505    -0.13100
C772        C  0.40345864  0.66340750  0.48283862     0.09000
C773        C  0.37756773  0.65505018  0.45292566    -0.13100
H774        H  0.33117481  0.61672130  0.92523938     0.13000
H775        H  0.38074098  0.58659739  0.01914610     0.13000
H776        H  0.42478532  0.63998428  0.02353733     0.13000
H777        H  0.37582069  0.67252385  0.43207375     0.13000
C778        C  0.32087250  0.51019103  0.15071944    -0.16200
C779        C  0.31224448  0.53043893  0.13597324    -0.31400
H780        H  0.31056231  0.98971087  0.11987073     0.12800
H781        H  0.31892973  0.55180790  0.15651773     0.13400
C782        C  0.32475824  0.51613676  0.33118082    -0.16200
C783        C  0.30234155  0.52407698  0.33970318    -0.31400
H784        H  0.33198523  0.50636983  0.35985570     0.12800
H785        H  0.27142476  0.98266442  0.30408071     0.13400
C786        C  0.31245836  0.83231450  0.18405300    -0.16200
C787        C  0.31967768  0.83858300  0.13720901    -0.31400
H788        H  0.29031518  0.81138085  0.19202385     0.12800
H789        H  0.34188059  0.85879631  0.12747226     0.13400
C790        C  0.32805670  0.84864533  0.36298159    -0.16200
C791        C  0.31971405  0.81977343  0.37787961    -0.31400
H792        H  0.32339762  0.86387668  0.38596162     0.12800
H793        H  0.32268153  0.80381150  0.35402946     0.13400
C794        C  0.36433822  0.93462027  0.24740540    -0.13000
C795        C  0.36355359  0.95863551  0.24215139    -0.14600
C796        C  0.99963812  0.85082752  0.16236492    -0.16200
C797        C  0.00511073  0.82729060  0.15020274    -0.31400
H798        H  0.49967257  0.86464303  0.13656789     0.12800
H799        H  0.00925924  0.81437970  0.17761821     0.13400
C800        C  0.50372026  0.83857284  0.34358034    -0.16200
C801        C  0.49971888  0.84205652  0.39069675    -0.31400
H802        H  0.00238847  0.81822973  0.33079529     0.12800
H803        H  0.49595301  0.86101958  0.40264071     0.13400
C804        C  0.44258243  0.87915872  0.25245661    -0.13000
C805        C  0.41708825  0.87776194  0.25074846    -0.14600
C806        C  0.16430690  0.50902021  0.13476629    -0.16200
C807        C  0.18771934  0.50311706  0.12367605    -0.31400
H808        H  0.15375586  0.51642537  0.10741935     0.12800
H809        H  0.19765965  0.49452465  0.15004452     0.13400
C810        C  0.18915987  0.52123966  0.30760375    -0.16200
C811        C  0.18252506  0.52326516  0.35283890    -0.31400
H812        H  0.20840441  0.51717976  0.29839535     0.12800
H813        H  0.16410825  0.03073441  0.37524480     0.13400
C814        C  0.07521875  0.96425412  0.24766015    -0.13000
C815        C  0.05046520  0.93967543  0.25160367    -0.14600
C816        C  0.17415252  0.68825854  0.13554673    -0.16200
C817        C  0.17795148  0.69885419  0.18069994    -0.31400
H818        H  0.15756050  0.66386640  0.12706734     0.12800
H819        H  0.19567851  0.72304675  0.18852323     0.13400
C820        C  0.17080299  0.68513377  0.39320637    -0.16200
C821        C  0.18108397  0.67964798  0.35177340    -0.31400
H822        H  0.14584197  0.67540048  0.39910922     0.12800
H823        H  0.20610202  0.68796128  0.34827517     0.13400
C824        C  0.13420264  0.56847425  0.22304735    -0.13000
C825        C  0.13557475  0.59363700  0.22819824    -0.14600
C826        C  0.00605852  0.69030219  0.15892487    -0.16200
C827        C  0.02221634  0.72127145  0.14931893    -0.31400
H828        H  0.99037724  0.67334768  0.13241397     0.12800
H829        H  0.53852836  0.73652785  0.17753556     0.13400
C830        C  0.50378462  0.69460442  0.37970164    -0.16200
C831        C  0.50718798  0.70287148  0.33428760    -0.31400
H832        H  0.01249059  0.68006047  0.38848466     0.12800
H833        H  0.50887334  0.72503686  0.32487145     0.13400
C834        C  0.05909315  0.65088502  0.24817909    -0.13000
C835        C  0.08269267  0.64888991  0.25121581    -0.14600
C836        C  0.44522943  0.60023563  0.24826167    -0.13000
C837        C  0.41988387  0.57635490  0.24501951    -0.14600
C838        C  0.50478632  0.67738410  0.79361412     0.86700
C839        C  0.03355137  0.67477981  0.78982073    -0.53500
C840        C  0.03419289  0.65829798  0.75046900     0.09600
C841        C  0.00548407  0.64743805  0.71645601     0.20600
C842        C  0.50422900  0.69184195  0.74642506    -0.54200
C843        C  0.00544482  0.67820324  0.70524518     0.09700
C844        C  0.47539574  0.64458020  0.79190522    -0.53800
C845        C  0.47397033  0.62678411  0.75292973     0.10300
H846        H  0.05214353  0.68445616  0.81675104     0.14800
H847        H  0.00596959  0.63423277  0.68421464     0.00600
H848        H  0.50403888  0.71377356  0.74430681     0.15100
H849        H  0.45701071  0.63642069  0.81870403     0.14900
C850        C  0.16305044  0.67219708  0.80254131     0.86700
C851        C  0.15784905  0.63925211  0.79321089    -0.53500
C852        C  0.14337932  0.62615804  0.75063643     0.09600
C853        C  0.13528017  0.64765347  0.72082206     0.20600
C854        C  0.18125572  0.69107165  0.75939393    -0.54200
C855        C  0.16700753  0.67876670  0.71639672     0.09700
C856        C  0.13031339  0.66885587  0.79780769    -0.53800
C857        C  0.11567349  0.65608981  0.75505484     0.10300
H858        H  0.16527910  0.62733139  0.81802462     0.14800
H859        H  0.12349986  0.63725941  0.68600691     0.00600
H860        H  0.20305656  0.71320976  0.76331263     0.15100
H861        H  0.11989272  0.67641629  0.82551738     0.14900
C862        C  0.16784111  0.51882874  0.78721243     0.86700
C863        C  0.12928413  0.98320961  0.79290930    -0.53500
C864        C  0.11262878  0.97995050  0.75202403     0.09600
C865        C  0.13152874  0.51430112  0.71566980     0.20600
C866        C  0.18058589  0.51672240  0.73858717    -0.54200
C867        C  0.16198755  0.51416251  0.70076405     0.09700
C868        C  0.16240692  0.54682194  0.78383714    -0.53800
C869        C  0.14354128  0.54473468  0.74629602     0.10300
H870        H  0.11914560  0.96831260  0.82374032     0.14800
H871        H  0.11619653  0.51250929  0.68512165     0.00600
H872        H  0.20354503  0.51878823  0.73481612     0.15100
H873        H  0.17320368  0.56689505  0.80823698     0.14900
C874        C  0.99828426  0.85363650  0.80423449     0.86700
C875        C  0.47143024  0.85530728  0.80520315    -0.53500
C876        C  0.46942812  0.87173130  0.76757639     0.09600
C877        C  0.99663038  0.88763995  0.73432257     0.20600
C878        C  0.99717450  0.84001603  0.75403233    -0.54200
C879        C  0.49990541  0.85593716  0.71823360     0.09700
C880        C  0.02696060  0.88674579  0.80302737    -0.53800
C881        C  0.02630000  0.90438943  0.76619500     0.10300
H882        H  0.45287605  0.84399803  0.83139362     0.14800
H883        H  0.99604336  0.90212505  0.70463029     0.00600
H884        H  0.99829204  0.81872863  0.74871764     0.15100
H885        H  0.04696829  0.89474765  0.82719414     0.14900
C886        C  0.34203319  0.86136187  0.81265092     0.86700
C887        C  0.35125132  0.89539015  0.80361516    -0.53500
C888        C  0.36526840  0.90616440  0.76077461     0.09600
C889        C  0.36893677  0.88172802  0.73025415     0.20600
C890        C  0.32122270  0.84277451  0.76981506    -0.54200
C891        C  0.33501825  0.85301073  0.72634109     0.09700
C892        C  0.37233945  0.86016072  0.80674982    -0.53800
C893        C  0.38664181  0.87095928  0.76402835     0.10300
H894        H  0.34659971  0.90968849  0.82865511     0.14800
H895        H  0.38090098  0.89075497  0.69564469     0.00600
H896        H  0.29765687  0.82286866  0.77363884     0.15100
H897        H  0.38215967  0.85230807  0.83462141     0.14900
C898        C  0.34290099  0.51437945  0.68103981     0.86700
C899        C  0.34682475  0.98379140  0.69612578    -0.53500
C900        C  0.36658771  0.98642608  0.73228277     0.09600
C901        C  0.37111063  0.51633151  0.76146685     0.20600
C902        C  0.32598044  0.51646095  0.72558469    -0.54200
C903        C  0.34037625  0.51782955  0.76771950     0.09700
C904        C  0.37640061  0.54244487  0.68535434    -0.53800
C905        C  0.39140237  0.54385667  0.72725273     0.10300
H906        H  0.33711914  0.96434133  0.67049824     0.14800
H907        H  0.38305746  0.51719923  0.79565492     0.00600
H908        H  0.30398506  0.51689114  0.72382549     0.15100
H909        H  0.38697241  0.56025748  0.65808392     0.14900
O910        O  0.22429459  0.02553961  0.90834154    -0.79900
O911        O  0.30105416  0.57117066  0.49057634    -0.79900
O912        O  0.22362375  0.56271072  0.47423087    -0.79900
O913        O  0.30618054  0.49412990  0.93298847    -0.79900
O914        O  0.25542907  0.57567307  0.53634275    -0.80000
O915        O  0.27696672  0.02333745  0.89121650    -0.79900
O916        O  0.32561488  0.54416847  0.99454159    -0.79900
O917        O  0.19309521  0.50451238  0.94756535    -0.79900
C918        C  0.20381209  0.51502514  0.90695130     1.09800
C919        C  0.32734766  0.57154558  0.48563891     1.09700
C920        C  0.24121572  0.58276209  0.50490030     1.09800
C921        C  0.30481975  0.50602305  0.89372337     1.09700
O922        O  0.24677822  0.95885412  0.92292868    -0.79900
O923        O  0.23398581  0.51288210  0.58191324    -0.80000
O924        O  0.18475117  0.97731715  0.49255607    -0.79900
O925        O  0.28689126  0.51439923  0.55619825    -0.79900
O926        O  0.29501988  0.55978102  0.58439688    -0.80000
O927        O  0.19366202  0.96021975  0.94342448    -0.79900
O928        O  0.25820080  0.96207685  0.99925817    -0.79900
O929        O  0.20438570  0.53163098  0.56262862    -0.79900
Co930      Co  0.23640069  0.99368828  0.91910816     1.51500
Co931      Co  0.26564241  0.54037038  0.53319504     1.51700
Co932      Co  0.19947248  0.51942792  0.49430412     1.51600
Co933      Co  0.29185976  0.49855709  0.99876715     1.51500
O934        O  0.23698366  0.51201552  0.48116481    -1.41800
C935        C  0.24913394  0.94648377  0.96119594     1.09700
C936        C  0.21214618  0.51815204  0.59255798     1.09800
C937        C  0.18489352  0.95093624  0.98615734     1.09700
C938        C  0.29935341  0.53661638  0.58820868     1.09700
O939        O  0.44148814  0.70653155  0.94401615    -0.79900
O940        O  0.00634083  0.79414387  0.60013703    -0.79900
O941        O  0.99438278  0.72841240  0.58731339    -0.79900
O942        O  0.45407375  0.77044181  0.53896017    -0.79900
O943        O  0.04300029  0.76323516  0.59614148    -0.80000
O944        O  0.44354463  0.76216264  0.95927857    -0.79900
O945        O  0.50199394  0.82800165  0.56845214    -0.79900
O946        O  0.44467459  0.70568621  0.52259717    -0.79900
C947        C  0.42987347  0.69076876  0.98156491     1.09800
C948        C  0.99730526  0.81459305  0.60322130     1.09700
C949        C  0.01989755  0.73840092  0.60991053     1.09800
C950        C  0.43461427  0.76425449  0.00159199     1.09700
O951        O  0.50696717  0.79455702  0.91737820    -0.79900
O952        O  0.06149552  0.78709267  0.50374671    -0.80000
O953        O  0.98328169  0.69496297  0.95401305    -0.79900
O954        O  0.03729419  0.83085494  0.49783799    -0.79000
O955        O  0.06280575  0.82975912  0.55898445    -0.80000
O956        O  0.50447039  0.73693244  0.90886938    -0.79900
O957        O  0.49141566  0.81668462  0.97007656    -0.79900
O958        O  0.04121370  0.73623129  0.51348469    -0.79900
Co959      Co  0.47612811  0.75100942  0.93586562     1.51500
Co960      Co  0.03170743  0.78583009  0.54992021     1.51700
Co961      Co  0.99467160  0.72122678  0.51753946     1.51600
Co962      Co  0.49818531  0.79723697  0.52252885     1.51500
O963        O  0.99972314  0.76321530  0.49585529    -1.41800
C964        C  0.50093168  0.81600986  0.92830522     1.09700
C965        C  0.06359702  0.76272719  0.50011527     1.09800
C966        C  0.49927043  0.70938743  0.91684069     1.09700
C967        C  0.06181012  0.84386420  0.52319416     1.09700
O968        O  0.20115974  0.77424909  0.01245384    -0.79900
O969        O  0.28566528  0.79901878  0.59732972    -0.79900
O970        O  0.21148248  0.74514653  0.59811822    -0.79900
O971        O  0.26190023  0.82606441  0.52593020    -0.79900
O972        O  0.24827750  0.73338053  0.60457157    -0.80000
O973        O  0.23466673  0.81225321  0.93840029    -0.79900
O974        O  0.32035885  0.83736351  0.55308334    -0.79900
O975        O  0.18634950  0.76140640  0.52424773    -0.79900
C976        C  0.17579020  0.74820732  0.00704291     1.09800
C977        C  0.31009100  0.82684174  0.59424363     1.09700
C978        C  0.22441109  0.73303672  0.62154325     1.09800
C979        C  0.25051960  0.83243033  0.96987612     1.09700
O980        O  0.27169832  0.78769259  0.92333080    -0.79900
O981        O  0.26352948  0.72323661  0.51273348    -0.80000
O982        O  0.22205414  0.72211140  0.92586413    -0.79900
O983        O  0.31422064  0.78393420  0.51169708    -0.79900
O984        O  0.30786926  0.75964538  0.57988871    -0.80000
O985        O  0.20584158  0.75491786  0.92206637    -0.79900
O986        O  0.31410222  0.82694655  0.95765394    -0.79900
O987        O  0.21351922  0.69758534  0.53508190    -0.79900
Co988      Co  0.23700633  0.78126529  0.97218603     1.51500
Co989      Co  0.27337492  0.76061790  0.55106739     1.51700
Co990      Co  0.20087006  0.73108968  0.53106395     1.51600
Co991      Co  0.28521007  0.80342327  0.52107651     1.51500
O992        O  0.24348981  0.76466083  0.50643816    -1.41800
C993        C  0.29971380  0.81149700  0.92025101     1.09700
C994        C  0.23833672  0.69786699  0.51992110     1.09800
C995        C  0.20679403  0.73216735  0.90390188     1.09700
C996        C  0.32367213  0.77107519  0.54255360     1.09700
C997        C  0.12139076  0.79302996  0.50230764    -0.13100
C998        C  0.09375434  0.76618121  0.48657402     0.09000
C999        C  0.08810351  0.71890865  0.99922815    -0.13100
C1000       C  0.11667631  0.71913936  0.00394982    -0.13100
C1001       C  0.14526189  0.74764009  0.00774529     0.09000
C1002       C  0.15015867  0.79411953  0.49866316    -0.13100
H1003       H  0.12045142  0.81209055  0.52066621     0.13000
H1004       H  0.06640930  0.69662044  0.99733615     0.13000
H1005       H  0.11640053  0.69699808  0.00438049     0.13000
H1006       H  0.17107142  0.81381901  0.51412716     0.13000
C1007       C  0.36759358  0.76389702  0.57089276    -0.13100
C1008       C  0.35100660  0.76756016  0.53298930     0.09000
C1009       C  0.35583741  0.75894712  0.97429494    -0.13100
C1010       C  0.38399854  0.75837440  0.96863583    -0.13100
C1011       C  0.40313959  0.76166366  0.00839045     0.09000
C1012       C  0.39439571  0.76177319  0.56176381    -0.13100
H1013       H  0.36038678  0.76363063  0.60758028     0.13000
H1014       H  0.34212575  0.75704609  0.94276247     0.13000
H1015       H  0.39117231  0.75616950  0.93282549     0.13000
H1016       H  0.40755949  0.76012141  0.59161108     0.13000
C1017       C  0.24411427  0.90187384  0.00710498    -0.13100
C1018       C  0.24515735  0.91519487  0.96230878     0.09000
C1019       C  0.24743706  0.90076085  0.92038418    -0.13100
C1020       C  0.24990941  0.87395523  0.92341364    -0.13100
C1021       C  0.25033802  0.86163579  0.96830606     0.09000
C1022       C  0.24711513  0.87540002  0.01010847    -0.13100
H1023       H  0.24204030  0.91255414  0.04004712     0.13000
H1024       H  0.24861212  0.91082436  0.88572528     0.13000
H1025       H  0.25197447  0.86303166  0.89071347     0.13000
H1026       H  0.24642341  0.86544579  0.04471458     0.13000
C1027       C  0.21414389  0.61351703  0.49365783    -0.13100
C1028       C  0.24144326  0.61274095  0.50713632     0.09000
C1029       C  0.26774582  0.64018880  0.52405740    -0.13100
C1030       C  0.26680976  0.66807997  0.52705517    -0.13100
C1031       C  0.23923168  0.66861066  0.51460875     0.09000
C1032       C  0.21288731  0.64114349  0.49802324    -0.13100
H1033       H  0.19340127  0.59247474  0.48087031     0.13000
H1034       H  0.28894919  0.64007464  0.53464419     0.13000
H1035       H  0.28740073  0.68911599  0.54020890     0.13000
H1036       H  0.19151772  0.64113824  0.48813001     0.13000
C1037       C  0.13713812  0.92018197  0.52829687    -0.13100
C1038       C  0.15728496  0.91990928  0.99465543     0.09000
C1039       C  0.13215907  0.90649039  0.96168334    -0.13100
C1040       C  0.10427232  0.87908289  0.97289870    -0.13100
C1041       C  0.08935110  0.87243724  0.50833798     0.09000
C1042       C  0.10995850  0.89364560  0.54272535    -0.13100
H1043       H  0.15291746  0.93640481  0.55530007     0.13000
H1044       H  0.13363276  0.91782934  0.92811413     0.13000
H1045       H  0.08497104  0.86944288  0.94732258     0.13000
H1046       H  0.10497965  0.88969762  0.58052740     0.13000
C1047       C  0.35325228  0.62412784  0.45131922    -0.13100
C1048       C  0.35533806  0.60142100  0.47839623     0.09000
C1049       C  0.38202664  0.60945830  0.50618739    -0.13100
C1050       C  0.40589271  0.64050051  0.50886679    -0.13100
C1051       C  0.40308175  0.65910727  0.97758059     0.09000
C1052       C  0.37723862  0.65212273  0.94815148    -0.13100
H1053       H  0.33239242  0.61805116  0.43018695     0.13000
H1054       H  0.38351211  0.59219873  0.52792301     0.13000
H1055       H  0.42632951  0.64664116  0.53115100     0.13000
H1056       H  0.37622500  0.67042306  0.92855753     0.13000
C1057       C  0.32543815  0.51353994  0.63590323    -0.16200
C1058       C  0.31783579  0.53593225  0.62899464    -0.31400
H1059       H  0.29410834  0.00548191  0.66549850     0.12800
H1060       H  0.32588671  0.55519256  0.65480891     0.13400
C1061       C  0.32558920  0.52083922  0.81241248    -0.16200
C1062       C  0.32716700  0.50957569  0.85501654    -0.31400
H1063       H  0.30910567  0.52944661  0.80820646     0.12800
H1064       H  0.31297265  0.03692666  0.82106654     0.13400
C1065       C  0.31800085  0.83559349  0.68187923    -0.16200
C1066       C  0.32623575  0.84643867  0.63731936    -0.31400
H1067       H  0.29758070  0.81244546  0.68635877     0.12800
H1068       H  0.34615899  0.86969764  0.63190502     0.13400
C1069       C  0.32723521  0.85047069  0.86059584    -0.16200
C1070       C  0.31466173  0.82061693  0.87372016    -0.31400
H1071       H  0.32643988  0.86742096  0.88517068     0.12800
H1072       H  0.31306291  0.80274745  0.84875463     0.13400
C1073       C  0.37318102  0.93723693  0.74637320    -0.13000
C1074       C  0.37370842  0.96169200  0.74000632    -0.14600
C1075       C  0.99641621  0.85000084  0.66576828    -0.16200
C1076       C  0.98996415  0.82137650  0.65104848    -0.31400
H1077       H  0.49459768  0.85988785  0.64016163     0.12800
H1078       H  0.98246569  0.80255282  0.67634216     0.13400
C1079       C  0.50394317  0.83333662  0.84495615    -0.16200
C1080       C  0.50256587  0.83862784  0.89204069    -0.31400
H1081       H  0.99936682  0.81140439  0.83129575     0.12800
H1082       H  0.49992463  0.85834378  0.90368720     0.13400
C1083       C  0.44164296  0.87398245  0.75826547    -0.13000
C1084       C  0.41693917  0.87372776  0.75548484    -0.14600
C1085       C  0.17278986  0.51533232  0.65075332    -0.16200
C1086       C  0.19668970  0.51003391  0.63938153    -0.31400
H1087       H  0.16237281  0.52292188  0.62350270     0.12800
H1088       H  0.20609512  0.50059646  0.66523209     0.13400
C1089       C  0.19031978  0.52121134  0.82588882    -0.16200
C1090       C  0.18393451  0.51973702  0.87247618    -0.31400
H1091       H  0.21189432  0.52179001  0.81500295     0.12800
H1092       H  0.15350021  0.01592766  0.88704904     0.13400
C1093       C  0.07990529  0.95590917  0.74837855    -0.13000
C1094       C  0.05400406  0.93350685  0.75381845    -0.14600
C1095       C  0.21105247  0.71671132  0.66639450    -0.16200
C1096       C  0.18016693  0.69552086  0.67087879    -0.31400
H1097       H  0.22767789  0.71976569  0.69444475     0.12800
H1098       H  0.16434884  0.69007277  0.64051006     0.13400
C1099       C  0.18880299  0.71685423  0.86021951    -0.16200
C1100       C  0.18020509  0.68704864  0.84871941    -0.31400
H1101       H  0.18136919  0.72988835  0.83776226     0.12800
H1102       H  0.18684922  0.67372538  0.87195338     0.13400
C1103       C  0.13788431  0.57048656  0.73636295    -0.13000
C1104       C  0.13786171  0.59516360  0.73701055    -0.14600
C1105       C  0.00648860  0.69131526  0.65746698    -0.16200
C1106       C  0.02257784  0.72269724  0.65211510    -0.31400
H1107       H  0.99281096  0.67575091  0.62812566     0.12800
H1108       H  0.53644277  0.73392660  0.67919243     0.13400
C1109       C  0.50459636  0.69106324  0.87982941    -0.16200
C1110       C  0.50620952  0.69862308  0.83401079    -0.31400
H1111       H  0.99979958  0.66826283  0.88747044     0.12800
H1112       H  0.50663999  0.72029025  0.82526187     0.13400
C1113       C  0.06073425  0.65337997  0.74246536    -0.13000
C1114       C  0.08518273  0.65280182  0.74391557    -0.14600
C1115       C  0.44675199  0.59562100  0.74432962    -0.13000
C1116       C  0.42227894  0.57091238  0.73837787    -0.14600
C1117       C  0.99765518  0.17437896  0.29292023     0.86700
C1118       C  0.52584877  0.17183618  0.28068651    -0.53500
C1119       C  0.52427890  0.15379936  0.24206412     0.09600
C1120       C  0.49328570  0.14071576  0.21256990     0.20600
C1121       C  0.99836652  0.19049342  0.24643247    -0.54200
C1122       C  0.49102548  0.17016874  0.20005422     0.09700
C1123       C  0.96727819  0.14251720  0.29030587    -0.53800
C1124       C  0.96496084  0.12499565  0.25065836     0.10300
H1125       H  0.54604224  0.18278974  0.30476740     0.14800
H1126       H  0.49170713  0.12598620  0.18104461     0.00600
H1127       H  0.00032123  0.21347715  0.24535891     0.15100
H1128       H  0.94929001  0.13444121  0.31765858     0.14900
C1129       C  0.65373425  0.17964274  0.30097832     0.86700
C1130       C  0.65187165  0.14732726  0.29827302    -0.53500
C1131       C  0.63863653  0.13073564  0.25657443     0.09600
C1132       C  0.62842316  0.14809586  0.22154124     0.20600
C1133       C  0.67140450  0.19640545  0.25599928    -0.54200
C1134       C  0.65841116  0.17998028  0.21454812     0.09700
C1135       C  0.61983284  0.17241968  0.29207714    -0.53800
C1136       C  0.60659334  0.15610117  0.25062429     0.10300
H1137       H  0.66066773  0.13865565  0.32641442     0.14800
H1138       H  0.61783252  0.13499183  0.18759111     0.00600
H1139       H  0.69223507  0.21950354  0.25688855     0.15100
H1140       H  0.60756804  0.18030794  0.31596500     0.14900
C1141       C  0.66537876  0.02035953  0.27915710     0.86700
C1142       C  0.63029838  0.48711358  0.27826032    -0.53500
C1143       C  0.61031794  0.48639304  0.24376506     0.09600
C1144       C  0.62764728  0.01908418  0.21207689     0.20600
C1145       C  0.67575489  0.01761048  0.22898109    -0.54200
C1146       C  0.65675523  0.01742343  0.19288043     0.09700
C1147       C  0.66206277  0.04973682  0.27871532    -0.53800
C1148       C  0.64218521  0.04933172  0.24427915     0.10300
H1149       H  0.62297349  0.46952889  0.30583841     0.14800
H1150       H  0.61159210  0.01854689  0.18358345     0.00600
H1151       H  0.69657969  0.01561745  0.22370346     0.15100
H1152       H  0.67428883  0.06918816  0.30389808     0.14900
C1153       C  0.49987992  0.35370557  0.29096441     0.86700
C1154       C  0.97511177  0.35798273  0.30909100    -0.53500
C1155       C  0.97407888  0.37509449  0.27171834     0.09600
C1156       C  0.49911210  0.38782986  0.22053068     0.20600
C1157       C  0.50053853  0.34074703  0.24124900    -0.54200
C1158       C  0.00218221  0.35627492  0.22153793     0.09700
C1159       C  0.52803961  0.38728223  0.29140133    -0.53800
C1160       C  0.52767899  0.40506433  0.25442190     0.10300
H1161       H  0.95685882  0.34807690  0.33597871     0.14800
H1162       H  0.49883501  0.40223985  0.19048941     0.00600
H1163       H  0.50217267  0.31971082  0.23591071     0.15100
H1164       H  0.54709304  0.39579473  0.31745866     0.14900
C1165       C  0.84523990  0.36565369  0.31011324     0.86700
C1166       C  0.85292113  0.39970597  0.30633603    -0.53500
C1167       C  0.87026440  0.41474205  0.26758730     0.09600
C1168       C  0.87885671  0.39416787  0.23558727     0.20600
C1169       C  0.82912917  0.35019144  0.26224623    -0.54200
C1170       C  0.84679196  0.36491914  0.22260046     0.09700
C1171       C  0.87701900  0.36695579  0.30887274    -0.53800
C1172       C  0.89467821  0.38168132  0.27007298     0.10300
H1173       H  0.84442044  0.41081103  0.33150099     0.14800
H1174       H  0.89334188  0.40644141  0.20406440     0.00600
H1175       H  0.80593130  0.32961372  0.26084497     0.15100
H1176       H  0.88478083  0.35677695  0.33624233     0.14900
C1177       C  0.83371431  0.01307572  0.18351171     0.86700
C1178       C  0.85036475  0.49278974  0.20368271    -0.53500
C1179       C  0.86730294  0.49428465  0.24315994     0.09600
C1180       C  0.86330345  0.01312398  0.26094927     0.20600
C1181       C  0.81630562  0.01211839  0.22938112    -0.54200
C1182       C  0.83140477  0.01196835  0.27033248     0.09700
C1183       C  0.86647059  0.04190507  0.18878682    -0.53800
C1184       C  0.88217133  0.04231979  0.22913717     0.10300
H1185       H  0.84227476  0.47391227  0.17720129     0.14800
H1186       H  0.87590199  0.01320912  0.29402572     0.00600
H1187       H  0.79413405  0.01206349  0.22920941     0.15100
H1188       H  0.87632445  0.06060995  0.16286752     0.14900
O1189       O  0.71883695  0.50388653  0.38806013    -0.79900
O1190       O  0.79467588  0.07232566  0.96406654    -0.79900
O1191       O  0.72830956  0.05765094  0.98280190    -0.79900
O1192       O  0.78981938  0.02456169  0.40080951    -0.79900
O1193       O  0.76605644  0.08718432  0.03472984    -0.80000
O1194       O  0.76660985  0.48897783  0.39769364    -0.79900
O1195       O  0.81366164  0.06436518  0.47528145    -0.79900
O1196       O  0.69104207  0.02297150  0.44388965    -0.79900
C1197       C  0.69941229  0.02031704  0.40308765     1.09800
C1198       C  0.82084217  0.07391347  0.97141847     1.09700
C1199       C  0.74561075  0.08419560  0.00437402     1.09800
C1200       C  0.77499152  0.00038176  0.37510226     1.09700
O1201       O  0.73321661  0.45073234  0.47639718    -0.79900
O1202       O  0.73206415  0.02878684  0.06984352    -0.80000
O1203       O  0.68476735  0.46575154  0.00669441    -0.79900
O1204       O  0.77892933  0.00753419  0.06191597    -0.79900
O1205       O  0.79566271  0.05696948  0.06233044    -0.80000
O1206       O  0.68187158  0.45471776  0.45187468    -0.79900
O1207       O  0.78474450  0.48024424  0.48017558    -0.79900
O1208       O  0.68452936  0.01314181  0.04093220    -0.79900
Co1209     Co  0.72656363  0.47756737  0.43328001     1.51500
Co1210     Co  0.76281056  0.04953821  0.01239515     1.51700
Co1211     Co  0.71576116  0.01183012  0.00060679     1.51600
Co1212     Co  0.79746563  0.02002842  0.46861613     1.51500
O1213       O  0.75356605  0.01099539  0.97444769    -1.41800
C1214       C  0.75993299  0.45315563  0.48024325     1.09700
C1215       C  0.70294525  0.02089173  0.07665230     1.09800
C1216       C  0.66811536  0.45198730  0.49110719     1.09700
C1217       C  0.79407490  0.03356077  0.08262686     1.09700
O1218       O  0.93879212  0.20145179  0.45675754    -0.79900
O1219       O  0.49152194  0.28006546  0.10001912    -0.79900
O1220       O  0.51531931  0.20965578  0.03683566    -0.79900
O1221       O  0.95771309  0.27553214  0.04005193    -0.79900
O1222       O  0.49686622  0.22833076  0.09162893    -0.80000
O1223       O  0.94096691  0.25632895  0.46447772    -0.79900
O1224       O  0.00776080  0.33169830  0.07120737    -0.79900
O1225       O  0.94304972  0.20418215  0.02167583    -0.79900
C1226       C  0.92876855  0.19126934  0.49851617     1.09800
C1227       C  0.49586090  0.30740139  0.09852469     1.09700
C1228       C  0.50380283  0.20794688  0.07819062     1.09800
C1229       C  0.93143802  0.25582941  0.50694160     1.09700
O1230       O  0.00133210  0.28869434  0.41745999    -0.79900
O1231       O  0.55940339  0.26582098  0.05096944    -0.80000
O1232       O  0.48597853  0.19640615  0.45384368    -0.79900
O1233       O  0.54289570  0.31891510  0.98008745    -0.79000
O1234       O  0.55422785  0.31729022  0.05589118    -0.80000
O1235       O  0.00069526  0.23184428  0.41169654    -0.79900
O1236       O  0.98586958  0.31029248  0.47231623    -0.79900
O1237       O  0.55330493  0.26193243  0.97326143    -0.79900
Co1238     Co  0.97286575  0.24547903  0.44045269     1.51500
Co1239     Co  0.52337512  0.27199730  0.07167914     1.51700
Co1240     Co  0.50951131  0.22926763  0.97665402     1.51600
Co1241     Co  0.00294578  0.29906298  0.02795793     1.51500
O1242       O  0.49867176  0.26049010  0.00918431    -1.41800
C1243       C  0.99586363  0.31042609  0.43008245     1.09700
C1244       C  0.57091115  0.26943551  0.00925523     1.09800
C1245       C  0.99511302  0.20428533  0.41929046     1.09700
C1246       C  0.56245312  0.32906179  0.01440650     1.09700
O1247       O  0.70522601  0.27385104  0.51090061    -0.79900
O1248       O  0.78017202  0.28417330  0.10693420    -0.79900
O1249       O  0.70949993  0.23628774  0.09109186    -0.79900
O1250       O  0.75740960  0.31942642  0.03629295    -0.79900
O1251       O  0.73947242  0.21659045  0.10099400    -0.80000
O1252       O  0.73831019  0.31402642  0.43961583    -0.79900
O1253       O  0.81393654  0.32935976  0.07335782    -0.79900
O1254       O  0.69125766  0.26086100  0.02293567    -0.79900
C1255       C  0.67980014  0.24800460  0.50581677     1.09800
C1256       C  0.80202055  0.31324004  0.11078416     1.09700
C1257       C  0.71761374  0.22028812  0.11589230     1.09800
C1258       C  0.75694251  0.33407170  0.47010329     1.09700
O1259       O  0.77423036  0.28775280  0.41781466    -0.79900
O1260       O  0.76370665  0.21969086  0.00708243    -0.80000
O1261       O  0.72650465  0.21790270  0.43096494    -0.79900
O1262       O  0.81575941  0.28639322  0.01029699    -0.79900
O1263       O  0.80646442  0.25405246  0.06681467    -0.80000
O1264       O  0.70986065  0.25044272  0.41898179    -0.79900
O1265       O  0.81930294  0.32349257  0.45054285    -0.79900
O1266       O  0.71247295  0.19306850  0.01763861    -0.79900
Co1267     Co  0.74036382  0.28084195  0.46928099     1.51500
Co1268     Co  0.76556251  0.24888969  0.05552231     1.51700
Co1269     Co  0.70263557  0.22843536  0.02078883     1.51600
Co1270     Co  0.78406878  0.30022186  0.02736982     1.51500
O1271       O  0.74711181  0.26201263  0.00110421    -1.41800
C1272       C  0.80293072  0.31017103  0.41351829     1.09700
C1273       C  0.73796003  0.19435863  0.00390107     1.09800
C1274       C  0.71242449  0.22729906  0.40448351     1.09700
C1275       C  0.82460123  0.27111003  0.03570675     1.09700
C1276       C  0.62420518  0.28505538  0.04101458    -0.13100
C1277       C  0.60420701  0.27917349  0.00181573     0.09000
C1278       C  0.59209791  0.21896488  0.50369544    -0.13100
C1279       C  0.62072217  0.21909920  0.50416469    -0.13100
C1280       C  0.64934966  0.24744142  0.50908021     0.09000
C1281       C  0.65268222  0.28577295  0.03455161    -0.13100
H1282       H  0.61682837  0.28662981  0.07697102     0.13000
H1283       H  0.57041446  0.19672363  0.50063904     0.13000
H1284       H  0.62042965  0.19702474  0.50052000     0.13000
H1285       H  0.66666467  0.28795559  0.06591571     0.13000
C1286       C  0.86886188  0.26541564  0.06587138    -0.13100
C1287       C  0.85411229  0.27142239  0.02768389     0.09000
C1288       C  0.85289069  0.24796801  0.47690462    -0.13100
C1289       C  0.88036730  0.24632097  0.47310542    -0.13100
C1290       C  0.89973304  0.25170911  0.51343456     0.09000
C1291       C  0.89655233  0.26470376  0.05841217    -0.13100
H1292       H  0.85914442  0.26162019  0.10151018     0.13000
H1293       H  0.83917361  0.24504271  0.44490661     0.13000
H1294       H  0.88714778  0.24223712  0.43803738     0.13000
H1295       H  0.90786133  0.26053453  0.08844944     0.13000
C1296       C  0.78618862  0.42068129  0.49644803    -0.13100
C1297       C  0.76063806  0.42333306  0.47950546     0.09000
C1298       C  0.73426588  0.39642801  0.46032413    -0.13100
C1299       C  0.73336149  0.36778906  0.45762405    -0.13100
C1300       C  0.75860890  0.36486504  0.47457610     0.09000
C1301       C  0.78500794  0.39146546  0.49450650    -0.13100
H1302       H  0.80676053  0.44095535  0.51139843     0.13000
H1303       H  0.71417105  0.39748903  0.44649220     0.13000
H1304       H  0.71265779  0.34778519  0.44236209     0.13000
H1305       H  0.80486613  0.38976650  0.50773175     0.13000
C1306       C  0.71334282  0.10922546  0.98994201    -0.13100
C1307       C  0.74289838  0.11139086  0.99267603     0.09000
C1308       C  0.77032095  0.14049869  0.98969727    -0.13100
C1309       C  0.76835718  0.16758342  0.98815079    -0.13100
C1310       C  0.73891413  0.16588969  0.99111452     0.09000
C1311       C  0.71131781  0.13652800  0.98958147    -0.13100
H1312       H  0.69198429  0.08665689  0.99192861     0.13000
H1313       H  0.79328099  0.14234339  0.99097610     0.13000
H1314       H  0.79008204  0.18989404  0.98858901     0.13000
H1315       H  0.68841080  0.13471745  0.99130014     0.13000
C1316       C  0.63676442  0.40632936  0.03490691    -0.13100
C1317       C  0.64011452  0.42227778  0.50043048     0.09000
C1318       C  0.62187419  0.40427473  0.46139370    -0.13100
C1319       C  0.59557745  0.37544597  0.46870204    -0.13100
C1320       C  0.59392770  0.35624586  0.00693656     0.09000
C1321       C  0.60908805  0.37834539  0.04393342    -0.13100
H1322       H  0.64733138  0.42358136  0.06360692     0.13000
H1323       H  0.62779675  0.41265564  0.42513045     0.13000
H1324       H  0.58164118  0.36202867  0.43795720     0.13000
H1325       H  0.59873350  0.37470075  0.07910414     0.13000
C1326       C  0.84989272  0.12912073  0.94266729    -0.13100
C1327       C  0.84960226  0.10442011  0.96786280     0.09000
C1328       C  0.87545619  0.11039663  0.99668277    -0.13100
C1329       C  0.90050324  0.14065725  0.00204844    -0.13100
C1330       C  0.89602159  0.16736564  0.50725720     0.09000
C1331       C  0.87387600  0.15627677  0.47009413    -0.13100
H1332       H  0.82998680  0.12505696  0.92062279     0.13000
H1333       H  0.87572538  0.09195902  0.01701459     0.13000
H1334       H  0.92005439  0.14466585  0.02495250     0.13000
H1335       H  0.87926466  0.16773984  0.43582028     0.13000
C1336       C  0.81649917  0.01270074  0.13891858    -0.16200
C1337       C  0.81089722  0.03599803  0.12743077    -0.31400
H1338       H  0.80102727  0.51515743  0.16413451     0.12800
H1339       H  0.81968963  0.05693533  0.14988246     0.13400
C1340       C  0.81854159  0.01194692  0.31879370    -0.16200
C1341       C  0.78727197  0.99837518  0.32751713    -0.31400
H1342       H  0.83525004  0.02316139  0.34803353     0.12800
H1343       H  0.80317967  0.53938694  0.32291617     0.13400
C1344       C  0.83704013  0.35409398  0.17169729    -0.16200
C1345       C  0.81141340  0.32645476  0.16000823    -0.31400
H1346       H  0.85214319  0.36872358  0.14337683     0.12800
H1347       H  0.79690537  0.31117036  0.18808200     0.13400
C1348       C  0.82688419  0.35065369  0.35468237    -0.16200
C1349       C  0.81657373  0.32073584  0.36607827    -0.31400
H1350       H  0.82318058  0.36545542  0.38011953     0.12800
H1351       H  0.81824285  0.30456072  0.34102935     0.13400
C1352       C  0.87589663  0.44587027  0.25700319    -0.13000
C1353       C  0.87472013  0.46968501  0.25198423    -0.14600
C1354       C  0.50105239  0.34962806  0.15364739    -0.16200
C1355       C  0.48773462  0.31927919  0.14118150    -0.31400
H1356       H  0.99811849  0.36092779  0.14338056     0.12800
H1357       H  0.47312757  0.30160873  0.16695711     0.13400
C1358       C  0.00473034  0.33257706  0.34834329    -0.16200
C1359       C  0.99987285  0.33509309  0.39541726    -0.31400
H1360       H  0.50104945  0.31159567  0.31880419     0.12800
H1361       H  0.99645322  0.35416482  0.40794705     0.13400
C1362       C  0.94814448  0.38093299  0.26475410    -0.13000
C1363       C  0.92474620  0.38332131  0.26321211    -0.14600
C1364       C  0.66417166  0.01622550  0.14078986    -0.16200
C1365       C  0.69245916  0.02035262  0.12650512    -0.31400
H1366       H  0.64659070  0.01280455  0.11412398     0.12800
H1367       H  0.71072829  0.02542771  0.15262253     0.13400
C1368       C  0.68742258  0.02058757  0.31720132    -0.16200
C1369       C  0.68336001  0.02550498  0.36295896    -0.31400
H1370       H  0.70585447  0.01537599  0.30753779     0.12800
H1371       H  0.66216526  0.52085126  0.36592154     0.13400
C1372       C  0.57830092  0.46052468  0.24136200    -0.13000
C1373       C  0.55386387  0.43608059  0.24552411    -0.14600
C1374       C  0.70341931  0.20780881  0.16198736    -0.16200
C1375       C  0.67215479  0.19225511  0.16749486    -0.31400
H1376       H  0.71885797  0.20950981  0.19119622     0.12800
H1377       H  0.65659068  0.18746021  0.13697192     0.13400
C1378       C  0.69864774  0.21009412  0.35885587    -0.16200
C1379       C  0.66840229  0.19930239  0.34631407    -0.31400
H1380       H  0.71259700  0.20283619  0.33771967     0.12800
H1381       H  0.65403625  0.20525133  0.36895990     0.13400
C1382       C  0.63668127  0.07589562  0.24094350    -0.13000
C1383       C  0.63619598  0.10033777  0.24587231    -0.14600
C1384       C  0.48426688  0.17929206  0.15293444    -0.16200
C1385       C  0.50194767  0.18467351  0.11357910    -0.31400
H1386       H  0.46859388  0.18898494  0.15430640     0.12800
H1387       H  0.03561529  0.23300303  0.17742289     0.13400
C1388       C  0.99797261  0.18549141  0.38038689    -0.16200
C1389       C  0.00016246  0.19469951  0.33515980    -0.31400
H1390       H  0.49835947  0.16740458  0.38346758     0.12800
H1391       H  0.00217424  0.21731087  0.32816928     0.13400
C1392       C  0.55046295  0.14869494  0.23234037    -0.13000
C1393       C  0.57554860  0.14958514  0.23555279    -0.14600
C1394       C  0.93777169  0.09378321  0.24346841    -0.13000
C1395       C  0.91323163  0.06903873  0.23941033    -0.14600
C1396       C  0.01152465  0.18010879  0.80096538     0.86700
C1397       C  0.52691847  0.16850922  0.80376415    -0.53500
C1398       C  0.52731748  0.15297860  0.76321524     0.09600
C1399       C  0.50033969  0.14574513  0.72755644     0.20600
C1400       C  0.01165850  0.19364940  0.75272467    -0.54200
C1401       C  0.50376830  0.17828289  0.71859213     0.09700
C1402       C  0.98083100  0.14829559  0.80103284    -0.53800
C1403       C  0.97814584  0.12893216  0.76375612     0.10300
H1404       H  0.54478726  0.17602719  0.83168653     0.14800
H1405       H  0.50064613  0.13312286  0.69447995     0.00600
H1406       H  0.01271277  0.21607388  0.74884485     0.15100
H1407       H  0.96259827  0.14184913  0.82776369     0.14900
C1408       C  0.66150444  0.17309718  0.79272984     0.86700
C1409       C  0.65596915  0.13951236  0.79065146    -0.53500
C1410       C  0.63644709  0.12155991  0.75408640     0.09600
C1411       C  0.62393542  0.13861902  0.72301199     0.20600
C1412       C  0.67322781  0.18585581  0.74273959    -0.54200
C1413       C  0.65367879  0.16804439  0.70611036     0.09700
C1414       C  0.62849257  0.16936203  0.79510301    -0.53800
C1415       C  0.60886413  0.15133351  0.75873074     0.10300
H1416       H  0.66731032  0.13104665  0.81489708     0.14800
H1417       H  0.60806462  0.12401290  0.69335054     0.00600
H1418       H  0.69572427  0.20683124  0.73679583     0.15100
H1419       H  0.62151524  0.18054184  0.82245332     0.14900
C1420       C  0.66166992  0.01312053  0.78126849     0.86700
C1421       C  0.62442124  0.48244904  0.78670777    -0.53500
C1422       C  0.60756949  0.48115538  0.74690252     0.09600
C1423       C  0.62428934  0.01063521  0.71274469     0.20600
C1424       C  0.67314198  0.01112289  0.73125951    -0.54200
C1425       C  0.65363904  0.00943099  0.69496907     0.09700
C1426       C  0.65716921  0.04166047  0.78041297    -0.53800
C1427       C  0.63766814  0.04052225  0.74477775     0.10300
H1428       H  0.61487317  0.46502385  0.81454469     0.14800
H1429       H  0.60831253  0.00960847  0.68370812     0.00600
H1430       H  0.69531277  0.01172977  0.72521778     0.15100
H1431       H  0.66847815  0.06114127  0.80584639     0.14900
C1432       C  0.49288906  0.35292275  0.79701525     0.86700
C1433       C  0.97541209  0.36044173  0.80643191    -0.53500
C1434       C  0.97369870  0.37623394  0.76757377     0.09600
C1435       C  0.49242461  0.38267242  0.72066599     0.20600
C1436       C  0.49194761  0.33613417  0.75013584    -0.54200
C1437       C  0.00253393  0.35734172  0.71990083     0.09700
C1438       C  0.52197829  0.38561689  0.79295311    -0.53800
C1439       C  0.52209340  0.40140916  0.75302705     0.10300
H1440       H  0.95675053  0.34987060  0.83262979     0.14800
H1441       H  0.49224336  0.39527798  0.68815842     0.00600
H1442       H  0.49259683  0.31443785  0.74967746     0.15100
H1443       H  0.54125152  0.39501060  0.81863425     0.14900
C1444       C  0.83875891  0.34985613  0.80416018     0.86700
C1445       C  0.84579930  0.38403599  0.80317604    -0.53500
C1446       C  0.86160299  0.39988155  0.76317539     0.09600
C1447       C  0.86879307  0.37978691  0.72747806     0.20600
C1448       C  0.82109663  0.33533536  0.75735117    -0.54200
C1449       C  0.83592168  0.35050571  0.71693888     0.09700
C1450       C  0.87066607  0.35182280  0.79818781    -0.53800
C1451       C  0.88682856  0.36773548  0.75875045     0.10300
H1452       H  0.83842103  0.39451323  0.83108602     0.14800
H1453       H  0.88156634  0.39259348  0.69508213     0.00600
H1454       H  0.79774330  0.31472362  0.75626972     0.15100
H1455       H  0.88016561  0.34233448  0.82397289     0.14900
C1456       C  0.85332194  0.01969474  0.67701819     0.86700
C1457       C  0.85074287  0.48310116  0.69552611    -0.53500
C1458       C  0.86887812  0.48477557  0.73370360     0.09600
C1459       C  0.87287051  0.01919439  0.76382154     0.20600
C1460       C  0.83122507  0.01931888  0.71640525    -0.54200
C1461       C  0.84092291  0.01895610  0.76223328     0.09700
C1462       C  0.88522157  0.04823347  0.68916862    -0.53800
C1463       C  0.89570400  0.04825249  0.73424195     0.10300
H1464       H  0.83958940  0.46274882  0.67168231     0.14800
H1465       H  0.88162190  0.01898365  0.80032973     0.00600
H1466       H  0.80944919  0.01920890  0.70842630     0.15100
H1467       H  0.89846802  0.06697500  0.66420319     0.14900
O1468       O  0.71583074  0.51212208  0.90636996    -0.79900
O1469       O  0.80600732  0.06164306  0.55359491    -0.79900
O1470       O  0.74032331  0.06420658  0.49043405    -0.79900
O1471       O  0.80519610  0.00108493  0.92968887    -0.79900
O1472       O  0.75311949  0.06224609  0.56476317    -0.80000
O1473       O  0.77722076  0.51552846  0.89472108    -0.79900
O1474       O  0.82227692  0.05101870  0.98980048    -0.79900
O1475       O  0.68678746  0.00192273  0.94440075    -0.79900
C1476       C  0.69702237  0.01134828  0.90284730     1.09800
C1477       C  0.81785691  0.07749138  0.51575455     1.09700
C1478       C  0.75113970  0.07767755  0.53021566     1.09800
C1479       C  0.80197545  0.00998346  0.88852455     1.09700
O1480       O  0.74683292  0.45170748  0.93403273    -0.79900
O1481       O  0.71751114  0.99376004  0.58065476    -0.80000
O1482       O  0.67682039  0.47458912  0.52007230    -0.79900
O1483       O  0.81540813  0.01794686  0.53284446    -0.79900
O1484       O  0.77091027  0.99192407  0.56845292    -0.80000
O1485       O  0.69268770  0.44838059  0.94083282    -0.79900
O1486       O  0.78011712  0.47128479  0.99212109    -0.79900
O1487       O  0.69538637  0.01923383  0.55477574    -0.79900
Co1488     Co  0.73516763  0.48486864  0.92776804     1.51500
Co1489     Co  0.76133243  0.02587458  0.56226935     1.51700
Co1490     Co  0.71539881  0.01870893  0.49345519     1.51600
Co1491     Co  0.78959833  0.00532749  0.99525128     1.51500
O1492       O  0.75564781  0.01670115  0.48953057    -1.41800
C1493       C  0.76147541  0.44806431  0.96785461     1.09700
C1494       C  0.69731775  0.00238607  0.58635961     1.09800
C1495       C  0.67723523  0.44341946  0.97845814     1.09700
C1496       C  0.79961619  0.00116678  0.56732002     1.09700
O1497       O  0.94102541  0.21200360  0.94456914    -0.79900
O1498       O  0.49442923  0.27522582  0.59786046    -0.79900
O1499       O  0.49883383  0.22407075  0.59247411    -0.79900
O1500       O  0.94995097  0.26152808  0.54219557    -0.79900
O1501       O  0.54425549  0.26640654  0.61212951    -0.80000
O1502       O  0.94778155  0.26903362  0.96182608    -0.79900
O1503       O  0.99647493  0.31975876  0.57336551    -0.79900
O1504       O  0.94744091  0.19944603  0.53323475    -0.79900
C1505       C  0.92858226  0.19637536  0.98208926     1.09800
C1506       C  0.49464679  0.30108259  0.60413393     1.09700
C1507       C  0.52267651  0.23869559  0.62104926     1.09800
C1508       C  0.93946731  0.27050055  0.00468138     1.09700
O1509       O  0.01035504  0.29887176  0.91989536    -0.79900
O1510       O  0.56104768  0.27208352  0.51904378    -0.80000
O1511       O  0.50645997  0.24269308  0.91183114    -0.79900
O1512       O  0.53701379  0.32588065  0.49096302    -0.79000
O1513       O  0.55492744  0.31764494  0.55725738    -0.80000
O1514       O  0.00439931  0.23961450  0.90901765    -0.79900
O1515       O  0.99640033  0.32187601  0.97366871    -0.79900
O1516       O  0.53559156  0.22154362  0.51383187    -0.79900
Co1517     Co  0.97778307  0.25563814  0.93677422     1.51500
Co1518     Co  0.52638487  0.27152403  0.55512487     1.51700
Co1519     Co  0.49269277  0.21646746  0.51984879     1.51600
Co1520     Co  0.99484006  0.28968257  0.52811658     1.51500
O1521       O  0.50105072  0.26090857  0.49565304    -1.41800
C1522       C  0.00517192  0.32085997  0.93138388     1.09700
C1523       C  0.56129977  0.24695673  0.51253797     1.09800
C1524       C  0.99841353  0.21189339  0.91771376     1.09700
C1525       C  0.55862824  0.33443244  0.52150108     1.09700
O1526       O  0.69661583  0.26847693  0.94557289    -0.79900
O1527       O  0.77835488  0.29969039  0.59644227    -0.79900
O1528       O  0.69834216  0.19977757  0.56676318    -0.79900
O1529       O  0.77298969  0.32659749  0.49848242    -0.79900
O1530       O  0.72257503  0.24517112  0.60540830    -0.80000
O1531       O  0.75253599  0.31926477  0.95743816    -0.79900
O1532       O  0.81717822  0.31727677  0.54715731    -0.79900
O1533       O  0.68030407  0.22314295  0.49346239    -0.79900
C1534       C  0.68492539  0.27031086  0.98537032     1.09800
C1535       C  0.80685097  0.31897217  0.58786362     1.09700
C1536       C  0.70002658  0.21748489  0.60175670     1.09800
C1537       C  0.75191962  0.33014429  0.99866597     1.09700
O1538       O  0.78485615  0.28875899  0.91915264    -0.79900
O1539       O  0.75356094  0.20904576  0.58142501    -0.80000
O1540       O  0.68487964  0.21293492  0.95474323    -0.79900
O1541       O  0.80698552  0.26647843  0.48638670    -0.79900
O1542       O  0.80729289  0.26276830  0.56529834    -0.80000
O1543       O  0.72610579  0.23383271  0.90778606    -0.79900
O1544       O  0.80635673  0.32777577  0.97126854    -0.79900
O1545       O  0.74598879  0.19905184  0.50442797    -0.79900
Co1546     Co  0.74093134  0.27623190  0.93578607     1.51500
Co1547     Co  0.76427122  0.25475610  0.58377885     1.51700
Co1548     Co  0.71505318  0.21235625  0.49922289     1.51600
Co1549     Co  0.78826305  0.29376963  0.49120940     1.51500
O1550       O  0.74988197  0.25622766  0.51618756    -1.41800
C1551       C  0.80595915  0.31665469  0.92971456     1.09700
C1552       C  0.75424925  0.19410160  0.54426542     1.09800
C1553       C  0.69796091  0.21283530  0.91567174     1.09700
C1554       C  0.81760437  0.26088288  0.52420698     1.09700
C1555       C  0.62013639  0.27548646  0.51266818    -0.13100
C1556       C  0.59150143  0.24717755  0.50784842     0.09000
C1557       C  0.61509381  0.27853551  0.95534309    -0.13100
C1558       C  0.64350263  0.27893295  0.94892600    -0.13100
C1559       C  0.66127676  0.28024062  0.98891125     0.09000
C1560       C  0.64869412  0.27561257  0.51335605    -0.13100
H1561       H  0.62049128  0.29758805  0.51662606     0.13000
H1562       H  0.60048374  0.27500995  0.92418723     0.13000
H1563       H  0.65000832  0.27535178  0.91334651     0.13000
H1564       H  0.67032418  0.29790317  0.51669922     0.13000
C1565       C  0.86205600  0.25765608  0.56218842    -0.13100
C1566       C  0.84402977  0.25467516  0.52119843     0.09000
C1567       C  0.86690990  0.27613612  0.98186188    -0.13100
C1568       C  0.89424424  0.27478694  0.97417241    -0.13100
C1569       C  0.90941669  0.26937824  0.01247245     0.09000
C1570       C  0.88978172  0.25631059  0.55831038    -0.13100
H1571       H  0.85560854  0.26261034  0.59694399     0.13000
H1572       H  0.85550895  0.28037589  0.95194182     0.13000
H1573       H  0.90385824  0.27864061  0.93841470     0.13000
H1574       H  0.90411770  0.26033711  0.58998502     0.13000
C1575       C  0.77304553  0.41339693  0.01782883    -0.13100
C1576       C  0.75647963  0.41697171  0.97955029     0.09000
C1577       C  0.73433531  0.39047654  0.95377380    -0.13100
C1578       C  0.73046623  0.36119762  0.96379834    -0.13100
C1579       C  0.74862741  0.35799059  0.99977554     0.09000
C1580       C  0.76907606  0.38398036  0.02794998    -0.13100
H1581       H  0.78981353  0.43345300  0.03890719     0.13000
H1582       H  0.72070340  0.39247966  0.92491691     0.13000
H1583       H  0.71465286  0.34131069  0.94154375     0.13000
H1584       H  0.78366693  0.38199038  0.05525913     0.13000
C1585       C  0.76846112  0.13053242  0.49864915    -0.13100
C1586       C  0.75876317  0.11031630  0.53750986     0.09000
C1587       C  0.75355503  0.12064375  0.58195153    -0.13100
C1588       C  0.75482110  0.14965599  0.58604738    -0.13100
C1589       C  0.76166105  0.16858108  0.54581504     0.09000
C1590       C  0.77024486  0.15955832  0.50291874    -0.13100
H1591       H  0.77325740  0.12329446  0.46438333     0.13000
H1592       H  0.74621993  0.10534252  0.61248333     0.13000
H1593       H  0.74808968  0.15610311  0.61940348     0.13000
H1594       H  0.77622289  0.17404048  0.47154918     0.13000
C1595       C  0.63201904  0.41107337  0.54707817    -0.13100
C1596       C  0.65003909  0.41241163  0.98896999     0.09000
C1597       C  0.63596547  0.38934251  0.95286595    -0.13100
C1598       C  0.60793400  0.36160394  0.96167590    -0.13100
C1599       C  0.58735165  0.36403460  0.51510750     0.09000
C1600       C  0.60575957  0.38169483  0.55440080    -0.13100
H1601       H  0.64618659  0.42475664  0.57744778     0.13000
H1602       H  0.64586750  0.39330465  0.91732727     0.13000
H1603       H  0.59677773  0.34460191  0.93279105     0.13000
H1604       H  0.59946539  0.37311830  0.59045053     0.13000
C1605       C  0.84575564  0.12835438  0.47551433    -0.13100
C1606       C  0.83995716  0.11113166  0.51774505     0.09000
C1607       C  0.85980676  0.12455639  0.55732575    -0.13100
C1608       C  0.88775265  0.15273465  0.55215854    -0.13100
C1609       C  0.90062633  0.16542270  0.97774855     0.09000
C1610       C  0.87564054  0.15948739  0.94694753    -0.13100
H1611       H  0.82995509  0.11868572  0.44500132     0.13000
H1612       H  0.85546321  0.11187475  0.59037550     0.13000
H1613       H  0.90408251  0.16142384  0.58211067     0.13000
H1614       H  0.87575010  0.17835271  0.92730802     0.13000
C1615       C  0.84211660  0.02012341  0.62682128    -0.16200
C1616       C  0.81441247  0.99702254  0.61017304    -0.31400
H1617       H  0.81723475  0.48964019  0.62351022     0.12800
H1618       H  0.80000459  0.97731242  0.63299412     0.13400
C1619       C  0.82071677  0.01809293  0.80360433    -0.16200
C1620       C  0.82514167  0.01402339  0.85009250    -0.31400
H1621       H  0.79993169  0.01960728  0.79452657     0.12800
H1622       H  0.80745641  0.52937816  0.81546183     0.13400
C1623       C  0.81743744  0.33901412  0.67113310    -0.16200
C1624       C  0.82855092  0.33998727  0.62677736    -0.31400
H1625       H  0.79210552  0.32496992  0.67564750     0.12800
H1626       H  0.85370938  0.35299418  0.62049660     0.13400
C1627       C  0.81964633  0.33044947  0.84605003    -0.16200
C1628       C  0.82796116  0.33690917  0.89242921    -0.31400
H1629       H  0.79719248  0.30970851  0.83760590     0.12800
H1630       H  0.84949195  0.35809376  0.90273345     0.13400
C1631       C  0.86871537  0.43195780  0.75446018    -0.13000
C1632       C  0.87135715  0.45745147  0.74677003    -0.14600
C1633       C  0.49266095  0.33955007  0.66060162    -0.16200
C1634       C  0.48843426  0.31045577  0.65151629    -0.31400
H1635       H  0.99510337  0.35771554  0.64147818     0.12800
H1636       H  0.48181752  0.29352331  0.67917662     0.13400
C1637       C  0.00653999  0.33716007  0.84785661    -0.16200
C1638       C  0.00656562  0.34339117  0.89496551    -0.31400
H1639       H  0.49074002  0.31134021  0.83214422     0.12800
H1640       H  0.00510267  0.36376966  0.90655441     0.13400
C1641       C  0.94511248  0.37723861  0.75641740    -0.13000
C1642       C  0.91915756  0.37455678  0.75236945    -0.14600
C1643       C  0.66189544  0.00852103  0.64392668    -0.16200
C1644       C  0.67906097  0.99505876  0.63093751    -0.31400
H1645       H  0.65643038  0.02147369  0.61815937     0.12800
H1646       H  0.68317726  0.98109608  0.65661125     0.13400
C1647       C  0.68351906  0.01444298  0.81999037    -0.16200
C1648       C  0.67668879  0.01374901  0.86660857    -0.31400
H1649       H  0.70491963  0.01459327  0.80935442     0.12800
H1650       H  0.65092083  0.51746331  0.88392342     0.13400
C1651       C  0.57528372  0.45539566  0.73995022    -0.13000
C1652       C  0.54965313  0.43162200  0.74193770    -0.14600
C1653       C  0.67845054  0.20596355  0.64251127    -0.16200
C1654       C  0.66244042  0.17579668  0.65525948    -0.31400
H1655       H  0.68043524  0.22379521  0.66802432     0.12800
H1656       H  0.65935756  0.15723828  0.63049265     0.13400
C1657       C  0.67837918  0.18926460  0.87846228    -0.16200
C1658       C  0.68431654  0.19423694  0.83154132    -0.31400
H1659       H  0.65654828  0.16901311  0.88949976     0.12800
H1660       H  0.70556191  0.21523491  0.82074314     0.13400
C1661       C  0.63126930  0.06600473  0.73971382    -0.13000
C1662       C  0.63110272  0.09041620  0.74351600    -0.14600
C1663       C  0.50708868  0.19262822  0.67124982    -0.16200
C1664       C  0.52290410  0.22409393  0.66621591    -0.31400
H1665       H  0.49588614  0.17722932  0.64052329     0.12800
H1666       H  0.04362142  0.23191518  0.68159038     0.13400
C1667       C  0.00685343  0.19406811  0.88454496    -0.16200
C1668       C  0.01413453  0.20285028  0.83955687    -0.31400
H1669       H  0.46101315  0.19745817  0.82350854     0.12800
H1670       H  0.01766268  0.22561787  0.82936869     0.13400
C1671       C  0.55312785  0.14735933  0.75431395    -0.13000
C1672       C  0.57760654  0.14703874  0.75345864    -0.14600
C1673       C  0.95023406  0.09841904  0.75707962    -0.13000
C1674       C  0.92562349  0.07425640  0.75034889    -0.14600
C1675       C  0.00999562  0.68533239  0.29401478     0.86700
C1676       C  0.53213312  0.67364312  0.29511238    -0.53500
C1677       C  0.53083994  0.65512207  0.25746489     0.09600
C1678       C  0.50256571  0.64587526  0.22287778     0.20600
C1679       C  0.00928385  0.69830051  0.24571911    -0.54200
C1680       C  0.50581600  0.67784339  0.20894576     0.09700
C1681       C  0.97989075  0.65317156  0.29538521    -0.53800
C1682       C  0.97709872  0.63359859  0.25829062     0.10300
H1683       H  0.55072195  0.68262487  0.32203938     0.14800
H1684       H  0.50139263  0.63096698  0.19185353     0.00600
H1685       H  0.00976662  0.72048141  0.24174911     0.15100
H1686       H  0.96216614  0.64666680  0.32292657     0.14900
C1687       C  0.66180582  0.67173780  0.30428533     0.86700
C1688       C  0.65946965  0.64003936  0.29326563    -0.53500
C1689       C  0.64274908  0.62559476  0.25250725     0.09600
C1690       C  0.63000757  0.64443246  0.22601761     0.20600
C1691       C  0.67537821  0.69083736  0.25921844    -0.54200
C1692       C  0.65903487  0.67707342  0.21854451     0.09700
C1693       C  0.62754771  0.66497752  0.30514288    -0.53800
C1694       C  0.61090906  0.65072308  0.26401801     0.10300
H1695       H  0.67010467  0.62992468  0.31570944     0.14800
H1696       H  0.61657279  0.63298448  0.19269760     0.00600
H1697       H  0.69631871  0.71392724  0.25930989     0.15100
H1698       H  0.61788654  0.67217314  0.33445085     0.14900
C1699       C  0.66418759  0.51414348  0.27347047     0.86700
C1700       C  0.63177466  0.99272775  0.28285109    -0.53500
C1701       C  0.61176668  0.99150895  0.24794480     0.09600
C1702       C  0.62617792  0.51300951  0.20706637     0.20600
C1703       C  0.67385389  0.51072055  0.22356062    -0.54200
C1704       C  0.65402765  0.50955245  0.18836243     0.09700
C1705       C  0.66175883  0.54397691  0.27249409    -0.53800
C1706       C  0.64188529  0.54356110  0.23793895     0.10300
H1707       H  0.62461711  0.97511510  0.31032878     0.14800
H1708       H  0.61012707  0.51248747  0.17856565     0.00600
H1709       H  0.69536983  0.51010962  0.21668561     0.15100
H1710       H  0.67469078  0.56373310  0.29696539     0.14900
C1711       C  0.50244466  0.85865545  0.30311879     0.86700
C1712       C  0.96733815  0.85972138  0.29789387    -0.53500
C1713       C  0.96609230  0.87609475  0.25953285     0.09600
C1714       C  0.49991235  0.88985869  0.22967659     0.20600
C1715       C  0.50327146  0.84444995  0.25415892    -0.54200
C1716       C  0.99834231  0.86013749  0.21328003     0.09700
C1717       C  0.52988515  0.89267847  0.30138821    -0.53800
C1718       C  0.52886768  0.90909801  0.26277892     0.10300
H1719       H  0.94821597  0.84847626  0.32318951     0.14800
H1720       H  0.49879909  0.90308021  0.19856733     0.00600
H1721       H  0.50440359  0.82308543  0.25136894     0.15100
H1722       H  0.54916552  0.90237898  0.32713051     0.14900
C1723       C  0.83745232  0.86007739  0.31242323     0.86700
C1724       C  0.84230781  0.89252083  0.30137572    -0.53500
C1725       C  0.85395213  0.90308441  0.25709330     0.09600
C1726       C  0.85981337  0.87958796  0.22680854     0.20600
C1727       C  0.81623005  0.83879755  0.27154743    -0.54200
C1728       C  0.82735917  0.84838034  0.22626483     0.09700
C1729       C  0.86948301  0.86272264  0.30391128    -0.53800
C1730       C  0.88155410  0.87289805  0.25958187     0.10300
H1731       H  0.83680458  0.90609747  0.32659642     0.14800
H1732       H  0.86962766  0.88823866  0.19086031     0.00600
H1733       H  0.79398599  0.81765889  0.27816653     0.15100
H1734       H  0.88182465  0.85730495  0.33111531     0.14900
C1735       C  0.84345225  0.51976756  0.20032248     0.86700
C1736       C  0.83898570  0.98489879  0.18650957    -0.53500
C1737       C  0.85445249  0.98463280  0.22677904     0.09600
C1738       C  0.87560328  0.52284563  0.27660419     0.20600
C1739       C  0.82701185  0.51911707  0.24749041    -0.54200
C1740       C  0.84336805  0.52058367  0.28792075     0.09700
C1741       C  0.87557165  0.54971371  0.20358999    -0.53800
C1742       C  0.89271873  0.55152235  0.24320745     0.10300
H1743       H  0.83064630  0.96634558  0.15942738     0.14800
H1744       H  0.88937126  0.52400644  0.30889485     0.00600
H1745       H  0.80356720  0.51623014  0.24857338     0.15100
H1746       H  0.88411085  0.56778896  0.17667281     0.14900
O1747       O  0.72012786  0.01201905  0.39875082    -0.79900
O1748       O  0.80521056  0.56439731  0.04295700    -0.79900
O1749       O  0.74081148  0.55505391  0.97957288    -0.79900
O1750       O  0.79293081  0.53598535  0.42515811    -0.79900
O1751       O  0.74962148  0.55941653  0.05658122    -0.80000
O1752       O  0.74983620  0.97789682  0.39102669    -0.79900
O1753       O  0.83177905  0.54492435  0.49929033    -0.79900
O1754       O  0.68524190  0.50826742  0.43531792    -0.79900
C1755       C  0.69682242  0.50991483  0.39481552     1.09800
C1756       C  0.81315901  0.57532263  0.00107695     1.09700
C1757       C  0.74892442  0.57158654  0.01755343     1.09800
C1758       C  0.78878510  0.51644305  0.39274486     1.09700
O1759       O  0.73139237  0.95284278  0.48321610    -0.79900
O1760       O  0.72341681  0.49749139  0.09382664    -0.80000
O1761       O  0.69920475  0.96760154  0.01501695    -0.79900
O1762       O  0.81988269  0.52343435  0.03067665    -0.79900
O1763       O  0.78165280  0.50215613  0.08208387    -0.80000
O1764       O  0.68824316  0.95054488  0.42001144    -0.79900
O1765       O  0.78156731  0.97337223  0.46320758    -0.79900
O1766       O  0.69705006  0.51438783  0.05212514    -0.79900
Co1767     Co  0.72588172  0.98341948  0.44535521     1.51500
Co1768     Co  0.76384060  0.52861322  0.06536037     1.51700
Co1769     Co  0.71345045  0.50934118  0.98914805     1.51600
Co1770     Co  0.78674424  0.52221756  0.49419187     1.51500
O1771       O  0.74877769  0.50368240  0.00220776    -1.41800
C1772       C  0.75560665  0.95017920  0.47698093     1.09700
C1773       C  0.69981739  0.50127882  0.08901358     1.09800
C1774       C  0.67308785  0.94900731  0.45763818     1.09700
C1775       C  0.81034760  0.51309809  0.07246004     1.09700
O1776       O  0.94499250  0.70824626  0.44226964    -0.79900
O1777       O  0.51446638  0.79474417  0.09546721    -0.79900
O1778       O  0.49007093  0.72268795  0.08914660    -0.79900
O1779       O  0.95280693  0.77129052  0.03683920    -0.79900
O1780       O  0.53986461  0.75701009  0.08953438    -0.80000
O1781       O  0.94092637  0.76050636  0.45712752    -0.79900
O1782       O  0.00153947  0.82953999  0.06465106    -0.79900
O1783       O  0.94273082  0.70043569  0.02310782    -0.79900
C1784       C  0.93484333  0.69330415  0.48084842     1.09800
C1785       C  0.50778109  0.81681283  0.10214402     1.09700
C1786       C  0.51670887  0.73403701  0.10856418     1.09800
C1787       C  0.93227163  0.76087008  0.50007652     1.09700
O1788       O  0.00193711  0.79827916  0.41220933    -0.79900
O1789       O  0.55905101  0.77197943  0.99394304    -0.80000
O1790       O  0.48438283  0.69882940  0.45324342    -0.79900
O1791       O  0.54670414  0.82642819  0.00909001    -0.79000
O1792       O  0.57399368  0.81723931  0.06320685    -0.80000
O1793       O  0.00731323  0.74453836  0.40505044    -0.79900
O1794       O  0.98273612  0.81667334  0.46575355    -0.79900
O1795       O  0.53402074  0.72293602  0.01837854    -0.79900
Co1796     Co  0.97589173  0.75402007  0.43242855     1.51500
Co1797     Co  0.53567448  0.78351669  0.03962526     1.51700
Co1798     Co  0.48871420  0.71294882  0.02075447     1.51600
Co1799     Co  0.99845259  0.79639319  0.02406835     1.51500
O1800       O  0.49690708  0.75608223  0.00101934    -1.41800
C1801       C  0.99322896  0.81777725  0.42378794     1.09700
C1802       C  0.55856691  0.74634708  0.00154535     1.09800
C1803       C  0.00549424  0.71849822  0.41425961     1.09700
C1804       C  0.57296819  0.83473777  0.03136511     1.09700
O1805       O  0.69123088  0.75941221  0.44701705    -0.79900
O1806       O  0.76863137  0.78674558  0.10725326    -0.79900
O1807       O  0.69329960  0.68738042  0.05610445    -0.79900
O1808       O  0.76218041  0.81949610  0.00527876    -0.79900
O1809       O  0.71417115  0.72834042  0.10497039    -0.80000
O1810       O  0.74613123  0.81457926  0.45116565    -0.79900
O1811       O  0.80659283  0.81157117  0.05651610    -0.79900
O1812       O  0.67446207  0.71708773  0.99311839    -0.79900
C1813       C  0.67528072  0.75712830  0.48402380     1.09800
C1814       C  0.79566580  0.80966048  0.09833281     1.09700
C1815       C  0.69312094  0.70039774  0.09534121     1.09800
C1816       C  0.75075430  0.83075929  0.48977209     1.09700
O1817       O  0.77888089  0.77927215  0.42206446    -0.79900
O1818       O  0.75044259  0.70022206  0.06902993    -0.80000
O1819       O  0.68247173  0.70445909  0.46987104    -0.79900
O1820       O  0.80293489  0.76532104  0.98899864    -0.79900
O1821       O  0.80265053  0.75755950  0.06650414    -0.80000
O1822       O  0.72313182  0.72554375  0.42227027    -0.79900
O1823       O  0.80162645  0.82386471  0.45939305    -0.79900
O1824       O  0.74186914  0.69477825  0.99121476    -0.79900
Co1825     Co  0.73592075  0.76934827  0.43936491     1.51500
Co1826     Co  0.75768306  0.74390224  0.08335825     1.51700
Co1827     Co  0.70974262  0.70648039  0.99228476     1.51600
Co1828     Co  0.78092348  0.78956877  0.99681028     1.51500
O1829       O  0.74347464  0.74930815  0.01724182    -1.41800
C1830       C  0.79939606  0.80768640  0.42249481     1.09700
C1831       C  0.75060832  0.68767113  0.02880917     1.09800
C1832       C  0.69533114  0.70425737  0.43076665     1.09700
C1833       C  0.81452946  0.75954131  0.02531967     1.09700
C1834       C  0.61720441  0.77259569  0.99723063    -0.13100
C1835       C  0.58794554  0.74485675  0.99812858     0.09000
C1836       C  0.58951414  0.72393364  0.50263560    -0.13100
C1837       C  0.61931092  0.72741046  0.50237732    -0.13100
C1838       C  0.64388956  0.75264765  0.47885040     0.09000
C1839       C  0.64509633  0.77161491  0.00148152    -0.13100
H1840       H  0.61856830  0.79518240  0.99471664     0.13000
H1841       H  0.57138769  0.70537460  0.52358082     0.13000
H1842       H  0.62349258  0.71095696  0.52202305     0.13000
H1843       H  0.66724835  0.79347734  0.00047766     0.13000
C1844       C  0.86214792  0.76044385  0.06036616    -0.13100
C1845       C  0.84344112  0.75736894  0.02021645     0.09000
C1846       C  0.86302122  0.77259441  0.48433235    -0.13100
C1847       C  0.88824129  0.76817597  0.47332477    -0.13100
C1848       C  0.90200783  0.75895275  0.50894271     0.09000
C1849       C  0.89118947  0.76177107  0.05479281    -0.13100
H1850       H  0.85487946  0.76296204  0.09596964     0.13000
H1851       H  0.85318101  0.78039179  0.45663211     0.13000
H1852       H  0.89796220  0.77353598  0.43764790     0.13000
H1853       H  0.90555623  0.76515659  0.08616401     0.13000
C1854       C  0.77736654  0.91687907  0.50568621    -0.13100
C1855       C  0.75321108  0.91925443  0.48278553     0.09000
C1856       C  0.72748219  0.89202786  0.46320578    -0.13100
C1857       C  0.72645794  0.86304332  0.46524080    -0.13100
C1858       C  0.75050691  0.86067175  0.48861259     0.09000
C1859       C  0.77572425  0.88776400  0.50935830    -0.13100
H1860       H  0.79745333  0.93755324  0.52084658     0.13000
H1861       H  0.70872016  0.89340583  0.44493101     0.13000
H1862       H  0.70693129  0.84252649  0.44877728     0.13000
H1863       H  0.79474439  0.88655499  0.52709704     0.13000
C1864       C  0.75345979  0.61835428  0.97708661    -0.13100
C1865       C  0.75539650  0.60404393  0.01870508     0.09000
C1866       C  0.76124938  0.62015237  0.06297550    -0.13100
C1867       C  0.76197661  0.64874163  0.06620925    -0.13100
C1868       C  0.75719694  0.66171973  0.02514360     0.09000
C1869       C  0.75457706  0.64711928  0.98022007    -0.13100
H1870       H  0.74955938  0.60668261  0.94251740     0.13000
H1871       H  0.76351669  0.60987618  0.09567051     0.13000
H1872       H  0.76444436  0.65968989  0.10105322     0.13000
H1873       H  0.75144145  0.65692517  0.94765862     0.13000
C1874       C  0.65466226  0.90526211  0.03833005    -0.13100
C1875       C  0.64657608  0.91962750  0.47083430     0.09000
C1876       C  0.62281297  0.90145461  0.43782940    -0.13100
C1877       C  0.59665440  0.87419105  0.45293830    -0.13100
C1878       C  0.60210824  0.86326187  0.01781720     0.09000
C1879       C  0.62704969  0.87816585  0.05080175    -0.13100
H1880       H  0.67322302  0.91679652  0.06486992     0.13000
H1881       H  0.62409870  0.90885518  0.40115935     0.13000
H1882       H  0.57780252  0.86033901  0.42763630     0.13000
H1883       H  0.62494121  0.86922603  0.08659302     0.13000
C1884       C  0.85094653  0.61975980  0.94995420    -0.13100
C1885       C  0.83824203  0.60820483  0.99519633     0.09000
C1886       C  0.85195751  0.62736449  0.03585314    -0.13100
C1887       C  0.87943742  0.65617071  0.03195475    -0.13100
C1888       C  0.90898826  0.66115736  0.47998069     0.09000
C1889       C  0.88081344  0.65296453  0.45622076    -0.13100
H1890       H  0.84063735  0.60561354  0.91790451     0.13000
H1891       H  0.84245234  0.61938850  0.07112753     0.13000
H1892       H  0.89038873  0.66959880  0.06433840     0.13000
H1893       H  0.87790144  0.67036346  0.43704193     0.13000
C1894       C  0.82376802  0.51713489  0.15719473    -0.16200
C1895       C  0.83225866  0.51652873  0.11144588    -0.31400
H1896       H  0.80861169  0.99255295  0.11488129     0.12800
H1897       H  0.85533219  0.51978128  0.10316932     0.13400
C1898       C  0.82908119  0.51644361  0.33692676    -0.16200
C1899       C  0.80785090  0.52562488  0.34816261    -0.31400
H1900       H  0.83519922  0.50446239  0.36351866     0.12800
H1901       H  0.77031786  0.98453482  0.29972217     0.13400
C1902       C  0.80792116  0.82859648  0.18387538    -0.16200
C1903       C  0.81564669  0.83302872  0.13694593    -0.31400
H1904       H  0.78571641  0.80797020  0.19261190     0.12800
H1905       H  0.83794470  0.85294102  0.12675694     0.13400
C1906       C  0.82449707  0.84927738  0.36232927    -0.16200
C1907       C  0.81779709  0.82105969  0.37856312    -0.31400
H1908       H  0.81902809  0.86420625  0.38460582     0.12800
H1909       H  0.82172983  0.80550074  0.35523675     0.13400
C1910       C  0.85884063  0.93352523  0.24241771    -0.13000
C1911       C  0.85907128  0.95807228  0.23613469    -0.14600
C1912       C  0.50218362  0.85084526  0.16439688    -0.16200
C1913       C  0.50606226  0.82638918  0.15186487    -0.31400
H1914       H  0.99641111  0.86405628  0.13426180     0.12800
H1915       H  0.50936385  0.81279614  0.17895968     0.13400
C1916       C  0.99880171  0.83756749  0.34128409    -0.16200
C1917       C  0.99437501  0.84079257  0.38826302    -0.31400
H1918       H  0.50655850  0.81878439  0.33298684     0.12800
H1919       H  0.98970053  0.85917687  0.40010763     0.13400
C1920       C  0.93799833  0.87838265  0.24945504    -0.13000
C1921       C  0.91262850  0.87734593  0.24824069    -0.14600
C1922       C  0.66122252  0.50694042  0.13778608    -0.16200
C1923       C  0.67694036  0.49166577  0.12744856    -0.31400
H1924       H  0.65914215  0.52207370  0.11192918     0.12800
H1925       H  0.67804837  0.47608367  0.15356021     0.13400
C1926       C  0.68631501  0.51387901  0.31025523    -0.16200
C1927       C  0.68117186  0.51649357  0.35612594    -0.31400
H1928       H  0.70507605  0.50936903  0.29970802     0.12800
H1929       H  0.66487003  0.03082387  0.37199128     0.13400
C1930       C  0.57955229  0.96492979  0.24597705    -0.13000
C1931       C  0.55510433  0.94024646  0.25154041    -0.14600
C1932       C  0.67044376  0.68131804  0.13230675    -0.16200
C1933       C  0.66979905  0.69461883  0.17385282    -0.31400
H1934       H  0.65787035  0.65596439  0.12809901     0.12800
H1935       H  0.68325569  0.72002309  0.17754799     0.13400
C1936       C  0.67606894  0.68148261  0.39262255    -0.16200
C1937       C  0.68241812  0.68978818  0.34675649    -0.31400
H1938       H  0.65459623  0.66023049  0.40180007     0.12800
H1939       H  0.70331061  0.71210946  0.33945194     0.13400
C1940       C  0.63729242  0.57031454  0.23273294    -0.13000
C1941       C  0.63787724  0.59513171  0.23736571    -0.14600
C1942       C  0.50563777  0.68917611  0.16014556    -0.16200
C1943       C  0.52133804  0.72030936  0.15172671    -0.31400
H1944       H  0.49088160  0.67248974  0.13262747     0.12800
H1945       H  0.04016560  0.73758441  0.17417497     0.13400
C1946       C  0.01263948  0.70137624  0.37828016    -0.16200
C1947       C  0.01271647  0.70787788  0.33248388    -0.31400
H1948       H  0.50121009  0.67213785  0.38953799     0.12800
H1949       H  0.01209341  0.72887930  0.32267471     0.13400
C1950       C  0.55575797  0.64761417  0.25165077    -0.13000
C1951       C  0.57991001  0.64664290  0.25492782    -0.14600
C1952       C  0.94925475  0.60261201  0.25332063    -0.13000
C1953       C  0.92416960  0.57831084  0.25079036    -0.14600
C1954       C  0.00459255  0.67892936  0.79184744     0.86700
C1955       C  0.53285981  0.67184989  0.79030282    -0.53500
C1956       C  0.53189503  0.65436236  0.75120335     0.09600
C1957       C  0.50245104  0.64386957  0.71879526     0.20600
C1958       C  0.00456428  0.69394708  0.74491608    -0.54200
C1959       C  0.50338689  0.67500628  0.70704128     0.09700
C1960       C  0.97611870  0.64563547  0.78820248    -0.53800
C1961       C  0.97648012  0.62886057  0.74904899     0.10300
H1962       H  0.55216357  0.68156045  0.81598262     0.14800
H1963       H  0.50155979  0.62986326  0.68670921     0.00600
H1964       H  0.00360028  0.71549085  0.74313649     0.15100
H1965       H  0.95727606  0.63621230  0.81426440     0.14900
C1966       C  0.66017307  0.66687880  0.80077415     0.86700
C1967       C  0.65465034  0.63387151  0.79053150    -0.53500
C1968       C  0.64047125  0.62140127  0.74748916     0.09600
C1969       C  0.63295351  0.64354612  0.71823920     0.20600
C1970       C  0.67886851  0.68614820  0.75828032    -0.54200
C1971       C  0.66501876  0.67451059  0.71487527     0.09700
C1972       C  0.62762727  0.66396615  0.79577127    -0.53800
C1973       C  0.61319341  0.65176248  0.75266505     0.10300
H1974       H  0.66163219  0.62148132  0.81505339     0.14800
H1975       H  0.62142487  0.63367918  0.68307837     0.00600
H1976       H  0.70079614  0.70804398  0.76290997     0.15100
H1977       H  0.61710000  0.67120147  0.82369786     0.14900
C1978       C  0.65808231  0.51042441  0.78818232     0.86700
C1979       C  0.62856106  0.98476134  0.78395221    -0.53500
C1980       C  0.60886565  0.98346964  0.74857015     0.09600
C1981       C  0.62645608  0.50847990  0.71184990     0.20600
C1982       C  0.67287730  0.50796423  0.74162887    -0.54200
C1983       C  0.65692652  0.50710753  0.70129393     0.09700
C1984       C  0.65459713  0.53949410  0.78268131    -0.53800
C1985       C  0.63803727  0.53870043  0.74289973     0.10300
H1986       H  0.62128178  0.96719259  0.81157313     0.14800
H1987       H  0.61311397  0.50780446  0.67931329     0.00600
H1988       H  0.69548223  0.50886786  0.74121015     0.15100
H1989       H  0.66475991  0.55922964  0.80778881     0.14900
C1990       C  0.50161571  0.85308331  0.80540161     0.86700
C1991       C  0.96947342  0.85828354  0.80533146    -0.53500
C1992       C  0.96850357  0.87589808  0.76852502     0.09600
C1993       C  0.49775108  0.88474521  0.73388578     0.20600
C1994       C  0.50171183  0.83929460  0.75585952    -0.54200
C1995       C  0.99605906  0.85762736  0.71729378     0.09700
C1996       C  0.52880475  0.88710079  0.80375154    -0.53800
C1997       C  0.52678046  0.90353152  0.76613783     0.10300
H1998       H  0.95082941  0.84739970  0.83148610     0.14800
H1999       H  0.49615404  0.89826003  0.70355840     0.00600
H2000       H  0.50259147  0.81781943  0.75185588     0.15100
H2001       H  0.54865071  0.89674806  0.82850355     0.14900
C2002       C  0.83969935  0.86139493  0.81524372     0.86700
C2003       C  0.84691992  0.89508519  0.80803074    -0.53500
C2004       C  0.86073513  0.90740841  0.76556493     0.09600
C2005       C  0.86622668  0.88456367  0.73344509     0.20600
C2006       C  0.81959116  0.84297944  0.77177018    -0.54200
C2007       C  0.83312948  0.85449594  0.72853276     0.09700
C2008       C  0.87110418  0.86245275  0.80855038    -0.53800
C2009       C  0.88530609  0.87471965  0.76623673     0.10300
H2010       H  0.84137542  0.90811509  0.83424569     0.14800
H2011       H  0.87793878  0.89471252  0.69907292     0.00600
H2012       H  0.79666005  0.82204369  0.77503191     0.15100
H2013       H  0.88161165  0.85478878  0.83563250     0.14900
C2014       C  0.84555950  0.51123262  0.69139848     0.86700
C2015       C  0.85733884  0.99141915  0.68657089    -0.53500
C2016       C  0.86738411  0.99080295  0.73165530     0.09600
C2017       C  0.88103575  0.51539877  0.76413473     0.20600
C2018       C  0.83223835  0.51335717  0.74024845    -0.54200
C2019       C  0.85079271  0.51586510  0.77876369     0.09700
C2020       C  0.87868451  0.54003112  0.69020127    -0.53800
C2021       C  0.89735293  0.54262533  0.72815224     0.10300
H2022       H  0.85209657  0.97305760  0.66003684     0.14800
H2023       H  0.89610385  0.51712103  0.79503040     0.00600
H2024       H  0.80956706  0.51204124  0.74335072     0.15100
H2025       H  0.88624445  0.55759755  0.66259270     0.14900
O2026       O  0.72421718  0.01687984  0.89172006    -0.79900
O2027       O  0.80468760  0.56992006  0.50210034    -0.79900
O2028       O  0.72782853  0.56167437  0.48160827    -0.79900
O2029       O  0.81870931  0.51590578  0.92810162    -0.79900
O2030       O  0.75812775  0.57368571  0.54547171    -0.80000
O2031       O  0.77859255  0.01367016  0.87984052    -0.79900
O2032       O  0.80151381  0.55731900  0.96511136    -0.79900
O2033       O  0.68016178  0.51057027  0.95754952    -0.79900
C2034       C  0.68975613  0.51219838  0.91507860     1.09800
C2035       C  0.83102547  0.57040762  0.49672899     1.09700
C2036       C  0.74484015  0.58133512  0.51322961     1.09800
C2037       C  0.80448101  0.51734713  0.89088257     1.09700
O2038       O  0.74820862  0.95336318  0.92472705    -0.79900
O2039       O  0.73489925  0.50964239  0.58893963    -0.80000
O2040       O  0.68289317  0.97189935  0.48837729    -0.79900
O2041       O  0.78876897  0.51156541  0.56596116    -0.79900
O2042       O  0.79592279  0.55617657  0.59578303    -0.80000
O2043       O  0.69448210  0.95538259  0.93780925    -0.79900
O2044       O  0.76060835  0.96118527  0.00113878    -0.79900
O2045       O  0.70646574  0.52943346  0.56866298    -0.79900
Co2046     Co  0.73737940  0.98695702  0.91155874     1.51500
Co2047     Co  0.76801729  0.53809492  0.54232302     1.51700
Co2048     Co  0.70279549  0.51809774  0.50007708     1.51600
Co2049     Co  0.78908711  0.51303423  0.97545408     1.51500
O2050       O  0.74057359  0.51098853  0.48778798    -1.41800
C2051       C  0.75161257  0.94361638  0.96493143     1.09700
C2052       C  0.71293608  0.51495916  0.59860856     1.09800
C2053       C  0.68591014  0.94797723  0.98117171     1.09700
C2054       C  0.79990835  0.53280112  0.59969487     1.09700
O2055       O  0.93841035  0.70628090  0.94604990    -0.79900
O2056       O  0.51796553  0.79633487  0.59825008    -0.79900
O2057       O  0.49166101  0.72542401  0.58847022    -0.79900
O2058       O  0.95119346  0.76739844  0.53480360    -0.79900
O2059       O  0.54209315  0.75496053  0.59099791    -0.80000
O2060       O  0.94243092  0.76252667  0.95919387    -0.79900
O2061       O  0.99382443  0.82700202  0.56574251    -0.79900
O2062       O  0.94950485  0.70409926  0.51955757    -0.79900
C2063       C  0.92626725  0.69308913  0.98542963     1.09800
C2064       C  0.50960224  0.81719090  0.60401844     1.09700
C2065       C  0.51764143  0.73320903  0.60862330     1.09800
C2066       C  0.93377583  0.76406567  0.00175827     1.09700
O2067       O  0.00435839  0.79391329  0.91473702    -0.79900
O2068       O  0.55845256  0.77455055  0.49399652    -0.80000
O2069       O  0.48663619  0.69561173  0.95521460    -0.79900
O2070       O  0.54117444  0.82750264  0.49785926    -0.79000
O2071       O  0.57047701  0.82091023  0.54804174    -0.80000
O2072       O  0.00152920  0.73613786  0.90763790    -0.79900
O2073       O  0.99020406  0.81684286  0.96845500    -0.79900
O2074       O  0.53287296  0.72468695  0.51227101    -0.79900
Co2075     Co  0.97385470  0.75060131  0.93522260     1.51500
Co2076     Co  0.53445454  0.77990568  0.54437821     1.51700
Co2077     Co  0.48844786  0.71661858  0.51857502     1.51600
Co2078     Co  0.99479465  0.79784810  0.52034725     1.51500
O2079       O  0.49845349  0.76032940  0.49671352    -1.41800
C2080       C  0.99883612  0.81569230  0.92619128     1.09700
C2081       C  0.55659359  0.74815511  0.49390789     1.09800
C2082       C  0.99598545  0.70854420  0.91553096     1.09700
C2083       C  0.56775197  0.83693438  0.51671647     1.09700
O2084       O  0.69990151  0.76768533  0.01267547    -0.79900
O2085       O  0.78517352  0.79843662  0.59918498    -0.79900
O2086       O  0.71092826  0.74142882  0.59916163    -0.79900
O2087       O  0.75909715  0.82347827  0.52818142    -0.79900
O2088       O  0.74966367  0.73265053  0.60746236    -0.80000
O2089       O  0.73283104  0.80688420  0.94020293    -0.79900
O2090       O  0.81857446  0.83724997  0.55454275    -0.79900
O2091       O  0.68388455  0.75415631  0.52518466    -0.79900
C2092       C  0.67432344  0.74215298  0.00599124     1.09800
C2093       C  0.80885813  0.82674158  0.59588661     1.09700
C2094       C  0.72457533  0.73035716  0.62320932     1.09800
C2095       C  0.74746503  0.82627688  0.97327661     1.09700
O2096       O  0.77051445  0.78311975  0.92258647    -0.79900
O2097       O  0.76585157  0.72240509  0.51570319    -0.80000
O2098       O  0.71991205  0.71571183  0.92417500    -0.79900
O2099       O  0.81428160  0.78450443  0.51245882    -0.79900
O2100       O  0.80974537  0.76107039  0.58112441    -0.80000
O2101       O  0.70457582  0.74932638  0.92106733    -0.79900
O2102       O  0.81195024  0.82201467  0.95893493    -0.79900
O2103       O  0.71619600  0.69514868  0.53850351    -0.79900
Co2104     Co  0.73551778  0.77531078  0.97181109     1.51500
Co2105     Co  0.77410130  0.75999810  0.55321444     1.51700
Co2106     Co  0.70121801  0.72652597  0.53258675     1.51600
Co2107     Co  0.78402233  0.80246552  0.52257652     1.51500
O2108       O  0.74309177  0.76236407  0.50845885    -1.41800
C2109       C  0.79822517  0.80753443  0.92060111     1.09700
C2110       C  0.74145289  0.69645756  0.52365562     1.09800
C2111       C  0.70493180  0.72628089  0.90265396     1.09700
C2112       C  0.82452466  0.77197415  0.54270580     1.09700
C2113       C  0.60825657  0.77008551  0.45343735    -0.13100
C2114       C  0.58426958  0.74622488  0.48043879     0.09000
C2115       C  0.58727322  0.71604392  0.00219901    -0.13100
C2116       C  0.61525180  0.71502829  0.00574403    -0.13100
C2117       C  0.64446032  0.74284859  0.00611885     0.09000
C2118       C  0.63804893  0.77303101  0.45212384    -0.13100
H2119       H  0.60446029  0.78738985  0.43581204     0.13000
H2120       H  0.56505506  0.69426330  0.00331525     0.13000
H2121       H  0.61403673  0.69252150  0.00845652     0.13000
H2122       H  0.65681574  0.79215480  0.43291758     0.13000
C2123       C  0.86379619  0.75662535  0.56581344    -0.13100
C2124       C  0.85104060  0.76740889  0.53090463     0.09000
C2125       C  0.85364359  0.75416839  0.97467672    -0.13100
C2126       C  0.88242253  0.75517014  0.96915632    -0.13100
C2127       C  0.90189549  0.75972830  0.00898030     0.09000
C2128       C  0.88925310  0.75261913  0.55497152    -0.13100
H2129       H  0.85460262  0.75200691  0.60182600     0.13000
H2130       H  0.83965994  0.75151087  0.94312776     0.13000
H2131       H  0.88980891  0.75329035  0.93332839     0.13000
H2132       H  0.89959578  0.74551498  0.58293721     0.13000
C2133       C  0.76157564  0.90598703  0.00878234    -0.13100
C2134       C  0.74779964  0.91250459  0.96956902     0.09000
C2135       C  0.73208409  0.88978297  0.93400730    -0.13100
C2136       C  0.73116476  0.86126952  0.93654210    -0.13100
C2137       C  0.74626988  0.85525483  0.97441986     0.09000
C2138       C  0.76097067  0.87750214  0.01104388    -0.13100
H2139       H  0.77385176  0.92332708  0.03681317     0.13000
H2140       H  0.72106862  0.89426537  0.90388091     0.13000
H2141       H  0.71935108  0.84428186  0.90788901     0.13000
H2142       H  0.77255166  0.87321481  0.04058791     0.13000
C2143       C  0.71778173  0.61191209  0.50178738    -0.13100
C2144       C  0.74518955  0.61141611  0.51526553     0.09000
C2145       C  0.77169825  0.63927052  0.53077364    -0.13100
C2146       C  0.77083399  0.66731713  0.53199613    -0.13100
C2147       C  0.74314051  0.66753084  0.51921643     0.09000
C2148       C  0.71662680  0.63960187  0.50437801    -0.13100
H2149       H  0.69688674  0.59061053  0.49016519     0.13000
H2150       H  0.79299999  0.63936471  0.54136716     0.13000
H2151       H  0.79149762  0.68868570  0.54409620     0.13000
H2152       H  0.69505770  0.63924721  0.49454051     0.13000
C2153       C  0.64525910  0.90987602  0.51800480    -0.13100
C2154       C  0.65814905  0.91756403  0.99228246     0.09000
C2155       C  0.63359062  0.90213493  0.95875981    -0.13100
C2156       C  0.60562406  0.87537373  0.97161693    -0.13100
C2157       C  0.59498594  0.86490675  0.50051429     0.09000
C2158       C  0.61962966  0.88234877  0.53272549    -0.13100
H2159       H  0.66404080  0.92361323  0.54339321     0.13000
H2160       H  0.63558383  0.91137394  0.92321158     0.13000
H2161       H  0.58680953  0.86406434  0.94539270     0.13000
H2162       H  0.61865817  0.87513813  0.56937541     0.13000
C2163       C  0.85559762  0.62254770  0.45973963    -0.13100
C2164       C  0.85884952  0.60007735  0.48582787     0.09000
C2165       C  0.88775025  0.60777261  0.50665798    -0.13100
C2166       C  0.91263682  0.63835289  0.50425513    -0.13100
C2167       C  0.89375911  0.66653022  0.98730768     0.09000
C2168       C  0.87851897  0.64880456  0.94601720    -0.13100
H2169       H  0.83328774  0.61678159  0.44338982     0.13000
H2170       H  0.89047840  0.59072682  0.52712951     0.13000
H2171       H  0.93463170  0.64440666  0.52206146     0.13000
H2172       H  0.88898437  0.65633655  0.91114297     0.13000
C2173       C  0.82491775  0.50896572  0.64910154    -0.16200
C2174       C  0.81683189  0.53104804  0.64233555    -0.31400
H2175       H  0.85589187  0.04059851  0.60503366     0.12800
H2176       H  0.82476269  0.55017564  0.66837114     0.13400
C2177       C  0.84178021  0.51662196  0.82992910    -0.16200
C2178       C  0.81876383  0.52277580  0.84262499    -0.31400
H2179       H  0.85339057  0.51049010  0.85734439     0.12800
H2180       H  0.84524954  0.01164289  0.86015456     0.13400
C2181       C  0.81660070  0.83668821  0.68373672    -0.16200
C2182       C  0.82475726  0.84699221  0.63884758    -0.31400
H2183       H  0.79647348  0.81333625  0.68833397     0.12800
H2184       H  0.84444669  0.87038083  0.63309367     0.13400
C2185       C  0.82497407  0.84865982  0.86293556    -0.16200
C2186       C  0.81350029  0.81854713  0.87437647    -0.31400
H2187       H  0.82314466  0.86446376  0.88867603     0.12800
H2188       H  0.81289205  0.80172120  0.84820503     0.13400
C2189       C  0.86804332  0.93889815  0.75351271    -0.13000
C2190       C  0.87006646  0.96405600  0.74622095    -0.14600
C2191       C  0.50023283  0.84772103  0.66695706    -0.16200
C2192       C  0.50836596  0.82651004  0.65352186    -0.31400
H2193       H  0.00383566  0.86868561  0.64008385     0.12800
H2194       H  0.51523850  0.81519898  0.67984502     0.13400
C2195       C  0.99956191  0.83268487  0.84288283    -0.16200
C2196       C  0.00021430  0.83843471  0.89025191    -0.31400
H2197       H  0.50565038  0.81291352  0.83421311     0.12800
H2198       H  0.99941475  0.85903749  0.90273207     0.13400
C2199       C  0.94114248  0.87924036  0.75952501    -0.13000
C2200       C  0.91626623  0.87886353  0.75708883    -0.14600
C2201       C  0.67061226  0.50970266  0.65282809    -0.16200
C2202       C  0.69563623  0.50564270  0.64409013    -0.31400
H2203       H  0.66112780  0.51743122  0.62423057     0.12800
H2204       H  0.70447144  0.49622764  0.67109512     0.13400
C2205       C  0.67781918  0.51157043  0.83031305    -0.16200
C2206       C  0.67142755  0.51502897  0.87568484    -0.31400
H2207       H  0.69819643  0.50871909  0.82316496     0.12800
H2208       H  0.65483341  0.01245117  0.87763697     0.13400
C2209       C  0.57682252  0.95794708  0.74699036    -0.13000
C2210       C  0.55243748  0.93399812  0.75377781    -0.14600
C2211       C  0.71034193  0.71252038  0.66673076    -0.16200
C2212       C  0.67916379  0.69187933  0.67009724    -0.31400
H2213       H  0.72645149  0.71439864  0.69496770     0.12800
H2214       H  0.66375381  0.68760764  0.63948052     0.13400
C2215       C  0.68643998  0.71115611  0.85917655    -0.16200
C2216       C  0.67718426  0.68120378  0.84734444    -0.31400
H2217       H  0.67937728  0.72457868  0.83695896     0.12800
H2218       H  0.68347157  0.66749640  0.87029152     0.13400
C2219       C  0.63382105  0.56527607  0.73207291    -0.13000
C2220       C  0.63456646  0.59034952  0.73305542    -0.14600
C2221       C  0.50348513  0.68724987  0.65895258    -0.16200
C2222       C  0.51979348  0.71844712  0.65215759    -0.31400
H2223       H  0.48947278  0.67120110  0.63028953     0.12800
H2224       H  0.03863494  0.73771416  0.68010429     0.13400
C2225       C  0.00140384  0.69039121  0.87832652    -0.16200
C2226       C  0.00419611  0.69889955  0.83276332    -0.31400
H2227       H  0.50304610  0.66902910  0.88939397     0.12800
H2228       H  0.00460287  0.72062583  0.82445629     0.13400
C2229       C  0.55800342  0.64889949  0.74153531    -0.13000
C2230       C  0.58252166  0.64834237  0.74193176    -0.14600
C2231       C  0.95109953  0.59678614  0.74017625    -0.13000
C2232       C  0.92776184  0.57103075  0.73553358    -0.14600
loop_ 
_geom_bond_atom_site_label_1 
_geom_bond_atom_site_label_2 
_geom_bond_distance 
_geom_bond_site_symmetry_2 
_ccdc_geom_bond_type 
C1            C7   1.533       .  S
C1            C5   1.529       .  S
C1          C273   1.515       .  S
C1         C1118   1.527       .  S
C2         C1117   1.531   1_455  S
C2            H9   1.087       .  S
C2            C3   1.366       .  D
C3            C4   1.547   1_455  S
C3          C276   1.448       .  S
C4            C6   1.552       .  S
C4         C1124   1.557       .  S
C4           H10   1.111       .  S
C5           H11   1.088       .  S
C5         C1122   1.362       .  D
C6         C1121   1.357       .  D
C6          C268   1.485       .  S
C7           H12   1.087       .  S
C7            C8   1.365       .  D
C8         C1120   1.558       .  S
C8          C278   1.457       .  S
C13          C14   1.546       .  S
C13          C19   1.531       .  S
C13          C17   1.528       .  S
C13         C263   1.521       .  S
C14          H21   1.086       .  S
C14          C15   1.374       .  D
C15          C16   1.547       .  S
C15         C267   1.466       .  S
C16          C20   1.544       .  S
C16          C18   1.548       .  S
C16          H22   1.111       .  S
C17          H23   1.086       .  S
C17          C18   1.365       .  D
C18         C259   1.482       .  S
C19          H24   1.087       .  S
C19          C20   1.361       .  D
C20         C277   1.448       .  S
C25          C31   1.539       .  S
C25          C29   1.509       .  S
C25         C252   1.509       .  S
C25         C584   1.532   1_545  S
C26         C583   1.529       .  S
C26          H33   1.088       .  S
C26          C27   1.356       .  D
C27         C586   1.558       .  S
C27         C256   1.453       .  S
C28          C32   1.557       .  S
C28          C30   1.559       .  S
C28         C585   1.562   1_545  S
C28          H34   1.110       .  S
C29          H35   1.084       .  S
C29          C30   1.362       .  D
C30         C248   1.493       .  S
C31          H36   1.086       .  S
C31          C32   1.365       .  D
C32         C266   1.465       .  S
C37          C43   1.546       .  S
C37          C41   1.538       .  S
C37        C1154   1.538   1_455  S
C37        C1358   1.534       .  S
C38        C1153   1.539       .  S
C38          H45   1.086       .  S
C38          C39   1.370       .  D
C39        C1156   1.541       .  S
C39         C246   1.451       .  S
C40          C44   1.535       .  S
C40        C1155   1.538   1_455  S
C40        C1158   1.535       .  S
C40          H46   1.111       .  S
C41          H47   1.083       .  S
C41        C1158   1.370       .  D
C42        C1156   1.535       .  S
C42        C1157   1.368       .  D
C42        C1354   1.481       .  S
C43          H48   1.086       .  S
C43          C44   1.376       .  D
C44         C257   1.456       .  S
C49          C50   1.523       .  S
C49          C55   1.528       .  S
C49          C53   1.543       .  S
C49         C232   1.505       .  S
C50          H57   1.088       .  S
C50          C51   1.350       .  D
C51          C52   1.549       .  S
C51         C236   1.442       .  S
C52          C56   1.550       .  S
C52          C54   1.560       .  S
C52          H58   1.111       .  S
C53          H59   1.084       .  S
C53          C54   1.380       .  D
C54         C228   1.514       .  S
C55          H60   1.087       .  S
C55          C56   1.361       .  D
C56         C247   1.449       .  S
C61          C67   1.530       .  S
C61          C65   1.526       .  S
C61         C220   1.494       .  S
C61         C620   1.529   1_545  S
C62         C619   1.522       .  S
C62          H69   1.088       .  S
C62          C63   1.351       .  D
C63         C622   1.549       .  S
C63         C237   1.442       .  S
C64          C68   1.556       .  S
C64          C66   1.563       .  S
C64         C621   1.555   1_545  S
C64          H70   1.111       .  S
C65          H71   1.086       .  S
C65          C66   1.363       .  D
C66         C224   1.498       .  S
C67          H72   1.087       .  S
C67          C68   1.360       .  D
C68         C279   1.456       .  S
O73         Co93   1.973       .  S
O73         C639   1.264       .  A
O74         Co94   1.964   1_556  S
O74          C82   1.266       .  A
O75         Co95   2.086   1_556  S
O75          C83   1.292   1_556  A
O76         Co96   1.965       .  S
O76          C84   1.255       .  A
O77         Co94   1.870       .  S
O77          C83   1.266       .  A
O78         Co93   2.014       .  S
O78         C642   1.250       .  A
O79         Co96   1.928       .  S
O79         C361   1.260       .  A
O80          C81   1.230       .  A
O80        Co374   1.885       .  S
C81         O631   1.277       .  A
C81         C253   1.462       .  S
C82         O358   1.272       .  A
C82         C211   1.469       .  S
C83         C191   1.450       .  S
C84         O636   1.268   1_545  A
C84         C225   1.485   1_545  S
O85         Co93   1.943       .  S
O85          C98   1.261       .  A
O86         Co94   2.105       .  S
O86          C99   1.296       .  A
O87        Co653   1.961       .  S
O87         C379   1.261   1_554  A
O88        Co375   1.956   1_554  S
O88         C101   1.253       .  A
O89         Co94   1.998       .  S
O89         C101   1.258       .  A
O90         Co93   1.976       .  S
O90         C100   1.260       .  A
O91        Co654   2.051       .  S
O91          C98   1.283       .  A
O92         Co95   1.898       .  S
O92          C99   1.260       .  A
Co93        O934   2.067       .  S
Co94         O97   1.991   1_554  S
Co95        O359   2.000   1_554  S
Co95        O645   1.956   1_545  S
Co95         O97   2.003   1_554  S
Co96        O367   2.011       .  S
Co96        O649   2.025   1_545  S
Co96        O376   2.041       .  S
O97        Co930   2.009   1_545  S
O97        Co375   2.018       .  S
C98         C181   1.483       .  S
C99         C249   1.466       .  S
C100        O366   1.254       .  A
C100        C201   1.439       .  S
C101        C221   1.461       .  S
O102       Co122   2.021       .  S
O102        C110   1.272       .  A
O103       Co123   2.078       .  S
O103        C111   1.289       .  A
O104       Co124   1.953       .  S
O104        C112   1.252   1_655  A
O105       Co125   2.031   1_554  S
O105        C392   1.260   1_554  A
O106       Co123   2.023       .  S
O106        C112   1.265       .  A
O107       Co122   2.009       .  S
O107        C113   1.266       .  A
O108       Co125   2.023   1_554  S
O108       C1227   1.268       .  A
O109      Co1240   2.019       .  S
O109        C389   1.278       .  A
C110        O388   1.251       .  A
C110        C214   1.464       .  S
C111       O1224   1.269       .  A
C111        C239   1.472       .  S
C112        C269   1.473       .  S
C113        O384   1.251       .  A
C113        C174   1.465       .  S
O114       Co122   2.021       .  S
O114        C127   1.280       .  A
O115       Co123   1.944   1_556  S
O115        C128   1.262       .  A
O116       Co403   2.001       .  S
O116       C1245   1.264       .  A
O117      Co1241   2.090       .  S
O117        C130   1.292       .  A
O118       Co123   1.899       .  S
O118        C130   1.266       .  A
O119       Co122   1.964       .  S
O119        C129   1.261       .  A
O120        C127   1.266       .  A
O120       Co404   1.977       .  S
O121       Co124   2.029   1_455  S
O121        C128   1.281   1_554  A
Co122      O1521   2.099       .  S
Co123       O126   1.990   1_455  S
Co124      O1225   1.948       .  S
Co124       O395   1.979   1_554  S
Co124       O126   2.018       .  S
Co125      O1233   1.960       .  S
Co125       O399   1.905       .  S
Co125      O1242   1.971   1_556  S
O126      Co1517   2.022   1_554  S
O126      Co1241   1.995   1_655  S
C127        C243   1.484       .  S
C128        C161   1.465       .  S
C129       O1232   1.271       .  A
C129        C272   1.482       .  S
C130        C204   1.471       .  S
O131       Co151   1.955       .  S
O131        C139   1.268       .  A
O132       Co152   2.092       .  S
O132        C140   1.292       .  A
O133       Co153   1.969       .  S
O133        C141   1.256       .  A
O134       Co154   1.961       .  S
O134        C421   1.273   1_554  A
O135       Co152   2.003       .  S
O135        C141   1.261       .  A
O136       Co151   1.893       .  S
O136        C142   1.269       .  A
O137       Co154   1.942       .  S
O137        C140   1.269       .  A
O138       Co153   1.932       .  S
O138        C418   1.258   1_554  A
C139        O417   1.279       .  A
C139        C164   1.473       .  S
C140        C229   1.497       .  S
C141        C258   1.470       .  S
C142        O413   1.293       .  A
C142        C184   1.478       .  S
O143       Co151   2.087       .  S
O143        C156   1.288       .  A
O144       Co152   1.949   1_556  S
O144        C157   1.262   1_556  A
O145       Co432   1.971       .  S
O145        C158   1.249       .  A
O146       Co154   2.083       .  S
O146        C159   1.290       .  A
O147       Co152   1.896       .  S
O147        C159   1.264       .  A
O148       Co151   2.033       .  S
O148        C158   1.265       .  A
O149       Co433   1.897       .  S
O149        C156   1.268       .  A
O150       Co153   1.996       .  S
O150        C157   1.274       .  A
Co151       O434   1.996       .  S
Co152       O155   2.004   1_554  S
Co153       O424   2.011   1_554  S
Co153       O155   2.027   1_554  S
Co154       O428   2.017   1_554  S
Co154       O155   2.013   1_554  S
O155       Co430   2.034       .  S
C156        C233   1.466       .  S
C157        C194   1.447   1_554  S
C158        C262   1.477       .  S
C159        C171   1.457       .  S
C160        C161   1.410       .  A
C160        C165   1.394       .  A
C160        H166   1.085       .  S
C161        C441   1.399       .  A
C162        C163   1.398       .  A
C162        C440   1.404       .  A
C162        H167   1.083       .  S
C163        C164   1.405       .  A
C163        H168   1.083       .  S
C164        C444   1.403       .  A
C165        C443   1.395       .  A
C165        H169   1.082       .  S
C170        C171   1.403       .  A
C170        C175   1.394       .  A
C170        H176   1.087       .  S
C171        C451   1.401   1_554  A
C172        C173   1.390       .  A
C172        C450   1.403       .  A
C172        H177   1.084       .  S
C173        C174   1.402       .  A
C173        H178   1.083       .  S
C174        C454   1.404       .  A
C175        C453   1.399       .  A
C175        H179   1.081       .  S
C180        C181   1.404       .  A
C180        C185   1.409       .  A
C180        H186   1.084       .  S
C181        C182   1.409       .  A
C182        C183   1.389       .  A
C182        H187   1.083       .  S
C183        C184   1.398       .  A
C183        H188   1.084       .  S
C184        C185   1.411       .  A
C185        H189   1.082       .  S
C190        C191   1.401   1_556  A
C190        C195   1.388       .  A
C190        H196   1.083       .  S
C191        C192   1.400       .  A
C192        C193   1.384       .  A
C192        H197   1.083       .  S
C193        C194   1.400   1_554  A
C193        H198   1.084       .  S
C194        C195   1.400       .  A
C195        H199   1.084       .  S
C200        C205   1.394       .  A
C200        C480   1.404   1_554  A
C200        H206   1.083       .  S
C201        C202   1.400       .  A
C201        C479   1.398       .  A
C202        C203   1.382       .  A
C202        H207   1.085       .  S
C203        C483   1.395       .  A
C203        H208   1.085       .  S
C204        C205   1.402       .  A
C204        C482   1.407   1_554  A
C205        H209   1.084       .  S
C210        C211   1.402       .  A
C210        C494   1.389       .  A
C210        H216   1.082       .  S
C211        C212   1.405       .  A
C212        C213   1.396       .  A
C212        H217   1.084       .  S
C213        C493   1.404       .  A
C213        H218   1.082       .  S
C214        C215   1.397       .  A
C214        C492   1.410       .  A
C215        C489   1.389       .  A
C215        H219   1.083       .  S
C220        H780   1.088   1_545  S
C220        C221   1.342       .  D
C221        H223   1.087       .  S
H222        C778   1.088       .  S
C224        H226   1.086       .  S
C224        C225   1.361   1_545  D
C225        H785   1.085       .  S
H227        C783   1.085       .  S
C228        H230   1.085       .  S
C228        C229   1.358       .  D
C229        H231   1.082       .  S
C232        H234   1.089       .  S
C232        C233   1.335       .  D
C233        H235   1.086       .  S
C236        C237   1.207       .  T
C238       H1356   1.085   1_455  S
C238        C239   1.345       .  D
C238       C1158   1.491       .  S
C239        H241   1.082       .  S
H240       C1354   1.087       .  S
C242       C1153   1.522       .  S
C242       H1360   1.087       .  S
C242        C243   1.341       .  D
C243        H245   1.086       .  S
H244       C1358   1.087       .  S
C246        C247   1.211       .  T
C248        H250   1.084       .  S
C248        C249   1.357       .  D
C249        H251   1.081       .  S
C252        H254   1.087       .  S
C252        C253   1.324       .  D
C253        H813   1.088       .  S
H255        C811   1.088       .  S
C256        C257   1.215       .  T
C258        H260   1.086       .  S
C258        C259   1.348       .  D
C259        H261   1.086       .  S
C262        H264   1.086       .  S
C262        C263   1.342       .  D
C263        H265   1.088       .  S
C266        C267   1.220       .  T
C268        H270   1.086       .  S
C268        C269   1.355   1_655  D
C269       H1387   1.086       .  S
H271       C1385   1.087       .  S
C272       H1390   1.087       .  S
C272        C273   1.345       .  D
C273        H275   1.088       .  S
H274       C1388   1.087       .  S
C276        C277   1.210       .  T
C278        C279   1.215       .  T
C280       C1397   1.529       .  S
C280        C286   1.533       .  S
C280        C284   1.522       .  S
C280        C552   1.494       .  S
C281       C1396   1.535       .  S
C281        H288   1.087       .  S
C281        C282   1.370       .  D
C282        C283   1.547       .  S
C282        C555   1.453       .  S
C283       C1403   1.547   1_455  S
C283        C285   1.544       .  S
C283        H289   1.111       .  S
C284        H290   1.085       .  S
C284       C1401   1.356       .  D
C285       C1400   1.357       .  D
C285        C547   1.472       .  S
C286        H291   1.086       .  S
C286        C287   1.364       .  D
C287       C1399   1.550       .  S
C287        C557   1.453       .  S
C292        C293   1.533       .  S
C292        C298   1.534       .  S
C292        C296   1.531       .  S
C292        C542   1.519       .  S
C293        H300   1.087       .  S
C293        C294   1.368       .  D
C294        C295   1.548       .  S
C294        C546   1.453       .  S
C295        C299   1.550       .  S
C295        C297   1.541       .  S
C295        H301   1.111       .  S
C296        H302   1.086       .  S
C296        C297   1.369       .  D
C297        C538   1.486       .  S
C298        H303   1.087       .  S
C298        C299   1.364       .  D
C299        C556   1.453       .  S
C304        C863   1.529   1_545  S
C304        C310   1.526       .  S
C304        C308   1.520       .  S
C304        C531   1.491       .  S
C305        C862   1.534       .  S
C305        H312   1.087       .  S
C305        C306   1.366       .  D
C306        C865   1.554       .  S
C306        C535   1.459       .  S
C307        C864   1.550   1_545  S
C307        C311   1.553       .  S
C307        C309   1.561   1_545  S
C307        H313   1.110       .  S
C308        H314   1.089       .  S
C308        C309   1.350   1_545  D
C309        C527   1.481       .  S
C310        H315   1.087       .  S
C310        C311   1.363       .  D
C311        C545   1.452       .  S
C316       C1433   1.539   1_455  S
C316        C322   1.535       .  S
C316        C320   1.533       .  S
C316       C1637   1.527       .  S
C317       C1432   1.533       .  S
C317        H324   1.085       .  S
C317        C318   1.366       .  D
C318       C1435   1.556       .  S
C318        C525   1.462       .  S
C319       C1434   1.548   1_455  S
C319        C323   1.550       .  S
C319       C1437   1.540       .  S
C319        H325   1.111       .  S
C320        H326   1.083       .  S
C320       C1437   1.369       .  D
C321       C1435   1.553       .  S
C321       C1436   1.363       .  D
C321       C1633   1.495       .  S
C322        H327   1.087       .  S
C322        C323   1.369       .  D
C323        C536   1.460       .  S
C328        C329   1.539       .  S
C328        C334   1.534       .  S
C328        C332   1.529       .  S
C328        C511   1.526       .  S
C329        H336   1.086       .  S
C329        C330   1.372       .  D
C330        C331   1.556       .  S
C330        C515   1.461       .  S
C331        C335   1.555       .  S
C331        C333   1.555       .  S
C331        H337   1.110       .  S
C332        H338   1.091       .  S
C332        C333   1.360       .  D
C333        C507   1.498       .  S
C334        H339   1.085       .  S
C334        C335   1.369       .  D
C335        C526   1.462       .  S
C340        C899   1.527   1_545  S
C340        C346   1.537       .  S
C340        C344   1.535       .  S
C340        C499   1.514       .  S
C341        C898   1.530       .  S
C341        H348   1.087       .  S
C341        C342   1.366       .  D
C342        C901   1.559       .  S
C342        C516   1.459       .  S
C343        C900   1.548   1_545  S
C343        C347   1.548       .  S
C343        C345   1.548       .  S
C343        H349   1.111       .  S
C344        H350   1.086       .  S
C344        C345   1.371       .  D
C345        C503   1.501       .  S
C346        H351   1.087       .  S
C346        C347   1.366       .  D
C347        C558   1.453       .  S
O352       Co372   1.982       .  S
O352        C918   1.264       .  A
O353       Co373   2.027       .  S
O353        C361   1.278       .  A
O354        C362   1.261       .  A
O354       Co374   1.953       .  S
O355       Co375   2.059       .  S
O355        C363   1.278       .  A
O356       Co373   2.003       .  S
O356        C362   1.267       .  A
O357       Co372   1.983       .  S
O357        C921   1.268       .  A
O358       Co375   2.006       .  S
O359        C360   1.255       .  A
C360        O910   1.254       .  A
C360        C532   1.464       .  S
C361        C490   1.460       .  S
C362        C470   1.462       .  S
C363        O915   1.258       .  A
C363        C504   1.486       .  S
O364       Co372   2.009       .  S
O364        C377   1.274       .  A
O365       Co373   2.045       .  S
O365        C378   1.281       .  A
O366       Co932   1.948       .  S
O367        C380   1.266       .  A
O368       Co373   1.966       .  S
O368        C380   1.261       .  A
O369       Co372   2.029       .  S
O369        C379   1.276       .  A
O370       Co933   1.928   1_554  S
O370        C377   1.258   1_554  A
O371        C378   1.246       .  A
O371       Co374   1.940       .  S
Co372       O655   2.019       .  S
Co373       O376   2.091       .  S
Co374       O924   2.068   1_545  S
Co374       O376   2.000       .  S
Co375       O928   1.914   1_545  S
O376       Co651   1.987   1_545  S
C377        C460   1.460       .  S
C378        C528   1.477       .  S
C379        C480   1.465       .  S
C380        C500   1.476       .  S
O381        C389   1.265       .  A
O381       Co401   1.943       .  S
O382        C390   1.296       .  A
O382       Co402   2.067       .  S
O383       Co403   1.982       .  S
O383        C391   1.258   1_655  A
O384       Co404   1.947       .  S
O385        C391   1.242       .  A
O385       Co402   1.949       .  S
O386        C392   1.237       .  A
O386       Co401   1.924       .  S
O387       C1506   1.253       .  A
O387       Co404   1.950       .  S
O388      Co1519   1.936       .  S
C389        C493   1.469       .  S
C390       O1503   1.275   1_455  A
C390        C518   1.469       .  S
C391        C548   1.449       .  S
C392        C453   1.453   1_556  S
O393        C406   1.298       .  A
O393       Co401   2.075       .  S
O394        C407   1.262       .  A
O394       Co402   1.937       .  S
O395       C1524   1.260       .  A
O396      Co1520   2.017   1_455  S
O396        C409   1.259       .  A
O397        C409   1.233       .  A
O397       Co402   1.901       .  S
O398        C408   1.239       .  A
O398       Co401   1.949       .  S
O399        C406   1.268       .  A
O400       Co403   2.033   1_455  S
O400        C407   1.279       .  A
Co401      O1242   2.069   1_556  S
Co402       O405   2.032   1_455  S
Co403      O1504   1.926       .  S
Co403       O405   2.069       .  S
Co404      O1512   1.944       .  S
Co404      O1521   1.966       .  S
O405      Co1238   2.038       .  S
O405      Co1520   1.962       .  S
C406        C522   1.479       .  S
C407        C440   1.473       .  S
C408       O1511   1.256       .  A
C408        C551   1.451       .  S
C409        C483   1.438       .  S
O410       Co430   2.023       .  S
O410        C418   1.272       .  A
O411       Co431   1.980       .  S
O411        C419   1.261       .  A
O412       Co432   2.037       .  S
O412        C420   1.275       .  A
O413       Co433   2.090       .  S
O414       Co431   1.955       .  S
O414        C420   1.259       .  A
O415       Co430   1.990       .  S
O415        C421   1.275       .  A
O416       Co433   2.036       .  S
O416        C419   1.268       .  A
O417       Co432   2.023       .  S
C418        C443   1.451       .  S
C419        C508   1.501       .  S
C420        C537   1.472       .  S
C421        C463   1.461       .  S
O422       Co430   1.985       .  S
O422        C435   1.266       .  A
O423       Co431   2.032       .  S
O423        C436   1.274       .  A
O424        C437   1.269       .  A
O425       Co433   1.958       .  S
O425        C438   1.266       .  A
O426       Co431   2.014       .  S
O426        C438   1.276       .  A
O427       Co430   1.980       .  S
O427        C437   1.268       .  A
O428        C435   1.268       .  A
O429       Co432   1.927       .  S
O429        C436   1.251       .  A
Co431       O434   2.024       .  S
Co432       O434   2.017       .  S
Co433       O434   2.005       .  S
C435        C512   1.491       .  S
C436        C473   1.466       .  S
C437        C541   1.480       .  S
C438        C450   1.468       .  S
C439        C440   1.406       .  A
C439        C444   1.391       .  A
C439        H445   1.083       .  S
C441        C442   1.388       .  A
C441        H446   1.081       .  S
C442        C443   1.402       .  A
C442        H447   1.085       .  S
C444        H448   1.084       .  S
C449        C450   1.404       .  A
C449        C454   1.394       .  A
C449        H455   1.083       .  S
C451        C452   1.387       .  A
C451        H456   1.080       .  S
C452        C453   1.401   1_556  A
C452        H457   1.085       .  S
C454        H458   1.083       .  S
C459        C460   1.407   1_554  A
C459        C464   1.386       .  A
C459        H465   1.083       .  S
C460        C461   1.398       .  A
C461        C462   1.390       .  A
C461        H466   1.083       .  S
C462        C463   1.408       .  A
C462        H467   1.084       .  S
C463        C464   1.398   1_556  A
C464        H468   1.083       .  S
C469        C470   1.397       .  A
C469        C474   1.389       .  A
C469        H475   1.083       .  S
C470        C471   1.407       .  A
C471        C472   1.394       .  A
C471        H476   1.083       .  S
C472        C473   1.398       .  A
C472        H477   1.084       .  S
C473        C474   1.410       .  A
C474        H478   1.083       .  S
C479        C484   1.386       .  A
C479        H485   1.083       .  S
C480        C481   1.400       .  A
C481        C482   1.396       .  A
C481        H486   1.083       .  S
C482        H487   1.083       .  S
C483        C484   1.403       .  A
C484        H488   1.082       .  S
C489        C490   1.407       .  A
C489        H495   1.084       .  S
C490        C491   1.397       .  A
C491        C492   1.391       .  A
C491        H496   1.083       .  S
C492        H497   1.084       .  S
C493        C494   1.405       .  A
C494        H498   1.084       .  S
C499       H1059   1.087       .  S
C499        C500   1.345       .  D
C500        H502   1.087       .  S
H501       C1057   1.086       .  S
C503        H505   1.086   1_545  S
C503        C504   1.350       .  D
C504       H1064   1.087       .  S
H506       C1062   1.089       .  S
C507        H509   1.094       .  S
C507        C508   1.348       .  D
C508        H510   1.093       .  S
C511        H513   1.090       .  S
C511        C512   1.347       .  D
C512        H514   1.087       .  S
C515        C516   1.217       .  T
C517       H1635   1.083   1_455  S
C517        C518   1.346       .  D
C517       C1437   1.493       .  S
C518        H520   1.078       .  S
H519       C1633   1.077       .  S
C521       C1432   1.512       .  S
C521       H1639   1.090       .  S
C521        C522   1.340       .  D
C522        H524   1.089       .  S
H523       C1637   1.087       .  S
C525        C526   1.218       .  T
C527        H529   1.089       .  S
C527        C528   1.325   1_565  D
C528        H530   1.089       .  S
C531        H533   1.089       .  S
C531        C532   1.337       .  D
C532       H1092   1.086       .  S
H534       C1090   1.086       .  S
C535        C536   1.217       .  T
C537        H539   1.088       .  S
C537        C538   1.344       .  D
C538        H540   1.086       .  S
C541        H543   1.087       .  S
C541        C542   1.343       .  D
C542        H544   1.087       .  S
C545        C546   1.213       .  T
C547        H549   1.086   1_455  S
C547        C548   1.343       .  D
C548       H1666   1.088       .  S
H550       C1664   1.086       .  S
C551       H1669   1.088       .  S
C551        C552   1.339       .  D
C552        H554   1.088       .  S
H553       C1667   1.086       .  S
C555        C556   1.213       .  T
C557        C558   1.213       .  T
C559       C1676   1.526       .  S
C559        C565   1.534       .  S
C559        C563   1.510       .  S
C559        C831   1.489       .  S
C560       C1675   1.527       .  S
C560        H567   1.087       .  S
C560        C561   1.363       .  D
C561        C562   1.555       .  S
C561        C834   1.450       .  S
C562       C1682   1.556   1_455  S
C562        C564   1.556       .  S
C562        H568   1.111       .  S
C563        H569   1.087       .  S
C563       C1680   1.356       .  D
C564       C1679   1.355       .  D
C564        C826   1.483       .  S
C565        H570   1.086       .  S
C565        C566   1.363       .  D
C566       C1678   1.555       .  S
C566        C836   1.455       .  S
C571        C572   1.532       .  S
C571        C577   1.548       .  S
C571        C575   1.523       .  S
C571        C821   1.522       .  S
C572        H579   1.087       .  S
C572        C573   1.367       .  D
C573        C574   1.546       .  S
C573        C825   1.453       .  S
C574        C578   1.541       .  S
C574        C576   1.548       .  S
C574        H580   1.110       .  S
C575        H581   1.088       .  S
C575        C576   1.357       .  D
C576        C817   1.477       .  S
C577        H582   1.084       .  S
C577        C578   1.371       .  D
C578        C835   1.452       .  S
C583        C589   1.525       .  S
C583        C587   1.503       .  S
C583        C810   1.486       .  S
C584        H591   1.087       .  S
C584        C585   1.366       .  D
C585        C814   1.464       .  S
C586        C590   1.556       .  S
C586        C588   1.558       .  S
C586        H592   1.110       .  S
C587        H593   1.083       .  S
C587        C588   1.363       .  D
C588        C806   1.482       .  S
C589        H594   1.087       .  S
C589        C590   1.362       .  D
C590        C824   1.450       .  S
C595       C1712   1.537       .  S
C595        C601   1.539   1_655  S
C595        C599   1.536       .  S
C595       C1916   1.531       .  S
C596       C1711   1.538       .  S
C596        H603   1.086       .  S
C596        C597   1.370       .  D
C597       C1714   1.549       .  S
C597        C804   1.462       .  S
C598       C1713   1.551       .  S
C598        C602   1.551   1_655  S
C598       C1716   1.546       .  S
C598        H604   1.111       .  S
C599        H605   1.082   1_655  S
C599       C1716   1.369       .  D
C600       C1714   1.543       .  S
C600       C1715   1.370       .  D
C600       C1912   1.499       .  S
C601        H606   1.086       .  S
C601        C602   1.372       .  D
C602        C815   1.466       .  S
C607        C608   1.526       .  S
C607        C613   1.527       .  S
C607        C611   1.537       .  S
C607        C790   1.516       .  S
C608        H615   1.087       .  S
C608        C609   1.358       .  D
C609        C610   1.557       .  S
C609        C794   1.450       .  S
C610        C614   1.562       .  S
C610        C612   1.565       .  S
C610        H616   1.110       .  S
C611        H617   1.087       .  S
C611        C612   1.372       .  D
C612        C786   1.513       .  S
C613        H618   1.087       .  S
C613        C614   1.364       .  D
C614        C805   1.460       .  S
C619        C625   1.536       .  S
C619        C623   1.530       .  S
C619        C778   1.498       .  S
C620        H627   1.087       .  S
C620        C621   1.359       .  D
C621        C795   1.451       .  S
C622        C626   1.553       .  S
C622        C624   1.563       .  S
C622        H628   1.111       .  S
C623        H629   1.086       .  S
C623        C624   1.368       .  D
C624        C782   1.503       .  S
C625        H630   1.087       .  S
C625        C626   1.365       .  D
C626        C837   1.456       .  S
O631       Co651   2.067   1_545  S
O632       Co652   1.956   1_556  S
O632        C640   1.266       .  A
O633       Co653   2.097   1_556  S
O633        C641   1.293   1_556  A
O634       Co654   2.022       .  S
O634        C642   1.249       .  A
O635       Co652   1.858       .  S
O635        C641   1.249       .  A
O636       Co651   2.027       .  S
O637       Co654   1.913       .  S
O637        C919   1.275       .  A
O638       Co932   1.946       .  S
O638        C639   1.250       .  A
C639        C811   1.443       .  S
C640        O916   1.283       .  A
C640        C769   1.462       .  S
C641        C749   1.446       .  S
C642        C783   1.485       .  S
O643       Co651   1.974       .  S
O643        C656   1.270       .  A
O644       Co652   2.098       .  S
O644        C657   1.296       .  A
O645        C937   1.267   1_554  A
O646       Co933   1.983   1_554  S
O646        C659   1.254       .  A
O647       Co652   1.969       .  S
O647        C659   1.242       .  A
O648       Co651   1.874       .  S
O648        C658   1.273       .  A
O649        C656   1.278       .  A
O650       Co653   1.897       .  S
O650        C657   1.261       .  A
Co652       O655   1.969   1_554  S
Co653       O917   1.984   1_554  S
Co653       O655   2.003   1_554  S
Co654       O925   2.080       .  S
Co654       O934   2.042       .  S
O655       Co933   2.021       .  S
C656        C739   1.475       .  S
C657        C807   1.454       .  S
C658        O924   1.296       .  A
C658        C759   1.452       .  S
C659        C779   1.461       .  S
O660       Co680   2.004       .  S
O660        C668   1.268       .  A
O661       Co681   2.094       .  S
O661        C669   1.294       .  A
O662       Co682   1.957       .  S
O662        C670   1.254   1_655  A
O663       Co683   1.983       .  S
O663        C950   1.273       .  A
O664       Co681   2.002       .  S
O664        C670   1.259       .  A
O665       Co680   2.011       .  S
O665        C671   1.278       .  A
O666       Co683   1.916       .  S
O666       C1785   1.268       .  A
O667      Co1798   1.947       .  S
O667        C947   1.259   1_554  A
C668        O946   1.254       .  A
C668        C772   1.447       .  S
C669       O1782   1.267       .  A
C669        C797   1.479       .  S
C670        C827   1.463       .  S
C671        O942   1.267       .  A
C671        C732   1.464       .  S
O672       Co680   1.988       .  S
O672        C685   1.268       .  A
O673       Co681   1.967   1_556  S
O673        C686   1.269       .  A
O674       Co961   1.973       .  S
O674       C1803   1.259   1_655  A
O675      Co1799   2.111   1_455  S
O675        C688   1.297       .  A
O676       Co681   1.890       .  S
O676        C688   1.264       .  A
O677       Co680   1.966       .  S
O677        C687   1.271       .  A
O678       Co962   2.037       .  S
O678        C685   1.274       .  A
O679       Co682   2.033   1_455  S
O679        C686   1.280   1_554  A
Co680      O2079   2.028       .  S
Co681       O684   1.999   1_454  S
Co682      O1783   1.954       .  S
Co682       O953   1.995   1_554  S
Co682       O684   2.038   1_554  S
Co683      O1791   2.108       .  S
Co683       O957   2.010   1_554  S
Co683      O1800   2.012       .  S
O684      Co2075   2.036       .  S
O684      Co1799   2.012   1_556  S
C685        C801   1.499       .  S
C686        C719   1.481       .  S
C687       O1790   1.262       .  A
C687        C830   1.453       .  S
C688        C762   1.477       .  S
O689       Co709   2.000       .  S
O689        C697   1.269       .  A
O690       Co710   1.990       .  S
O690        C698   1.266       .  A
O691       Co711   2.005   1_554  S
O691        C699   1.266       .  A
O692       Co712   2.100   1_554  S
O692        C979   1.298   1_554  A
O693       Co710   1.973       .  S
O693        C699   1.267       .  A
O694       Co709   2.050       .  S
O694        C700   1.284       .  A
O695       Co712   2.038   1_554  S
O695        C698   1.272       .  A
O696       Co711   2.032       .  S
O696        C976   1.282   1_556  A
C697        O975   1.265       .  A
C697        C722   1.443       .  S
C698        C787   1.510       .  S
C699        C816   1.476       .  S
C700        O971   1.266       .  A
C700        C742   1.482       .  S
O701       Co709   1.972       .  S
O701        C714   1.252       .  A
O702       Co710   2.014       .  S
O702        C715   1.273       .  A
O703       Co990   2.004       .  S
O703        C716   1.263       .  A
O704       Co712   1.989       .  S
O704        C717   1.266   1_556  A
O705       Co710   2.030       .  S
O705        C717   1.275       .  A
O706       Co709   1.987       .  S
O706        C716   1.265       .  A
O707       Co991   2.021       .  S
O707        C714   1.266       .  A
O708       Co711   1.913       .  S
O708        C715   1.247   1_556  A
Co709       O992   2.023       .  S
Co710       O713   2.048       .  S
Co711       O982   1.971       .  S
Co711       O713   2.027   1_556  S
Co712       O986   1.893       .  S
Co712       O713   2.006   1_556  S
O713       Co988   1.984   1_554  S
C714        C791   1.474       .  S
C715        C752   1.448       .  S
C716        C820   1.480       .  S
C717        C729   1.494       .  S
C718        C719   1.406   1_554  A
C718        C723   1.397       .  A
C718        H724   1.084       .  S
C719        C999   1.406       .  A
C720        C998   1.399       .  A
C720        C721   1.391       .  A
C720        H725   1.083       .  S
C721        C722   1.402       .  A
C721        H726   1.085       .  S
C722       C1002   1.394       .  A
C723       C1001   1.406       .  A
C723        H727   1.082       .  S
C728        C729   1.408       .  A
C728        C733   1.405       .  A
C728        H734   1.083       .  S
C729       C1009   1.407   1_554  A
C730       C1008   1.399       .  A
C730        C731   1.389       .  A
C730        H735   1.083       .  S
C731        C732   1.405       .  A
C731        H736   1.083       .  S
C732       C1012   1.403       .  A
C733       C1011   1.408       .  A
C733        H737   1.083       .  S
C738        C739   1.400       .  A
C738        C743   1.400       .  A
C738        H744   1.084       .  S
C739        C740   1.406       .  A
C740        C741   1.403       .  A
C740        H745   1.083       .  S
C741        C742   1.404       .  A
C741        H746   1.083       .  S
C742        C743   1.409       .  A
C743        H747   1.083       .  S
C748        C749   1.392   1_556  A
C748        C753   1.384       .  A
C748        H754   1.083       .  S
C749        C750   1.409       .  A
C750        C751   1.382       .  A
C750        H755   1.084       .  S
C751        C752   1.392       .  A
C751        H756   1.083       .  S
C752        C753   1.410   1_554  A
C753        H757   1.083       .  S
C758       C1038   1.403   1_554  A
C758        C763   1.395       .  A
C758        H764   1.084       .  S
C759       C1037   1.404       .  A
C759        C760   1.398       .  A
C760        C761   1.390       .  A
C760        H765   1.085       .  S
C761       C1041   1.402       .  A
C761        H766   1.083       .  S
C762       C1040   1.405   1_554  A
C762        C763   1.405       .  A
C763        H767   1.083       .  S
C768        C769   1.407       .  A
C768       C1052   1.396       .  A
C768        H774   1.084       .  S
C769        C770   1.400       .  A
C770        C771   1.387   1_556  A
C770        H775   1.083   1_556  S
C771       C1051   1.402   1_554  A
C771        H776   1.084       .  S
C772       C1050   1.404       .  A
C772        C773   1.396       .  A
C773       C1047   1.389       .  A
C773        H777   1.084       .  S
C778        C779   1.331       .  D
C779        H781   1.087       .  S
C782        H784   1.086       .  S
C782        C783   1.357       .  D
C786        H788   1.087       .  S
C786        C787   1.356       .  D
C787        H789   1.085       .  S
C790        H792   1.088       .  S
C790        C791   1.341       .  D
C791        H793   1.087       .  S
C794        C795   1.212       .  T
C796       H1914   1.088       .  S
C796        C797   1.352   1_655  D
C796       C1716   1.500       .  S
C797        H799   1.084       .  S
H798       C1912   1.086       .  S
C800       C1711   1.534       .  S
C800       H1918   1.087       .  S
C800        C801   1.353       .  D
C801        H803   1.086       .  S
H802       C1916   1.087   1_455  S
C804        C805   1.218       .  T
C806        H808   1.086       .  S
C806        C807   1.352       .  D
C807        H809   1.083       .  S
C810        H812   1.087       .  S
C810        C811   1.321       .  D
C814        C815   1.220       .  T
C816        H818   1.085       .  S
C816        C817   1.336       .  D
C817        H819   1.087       .  S
C820        H822   1.083       .  S
C820        C821   1.340       .  D
C821        H823   1.087       .  S
C824        C825   1.212       .  T
C826        H828   1.086   1_455  S
C826        C827   1.353       .  D
C827       H1945   1.087       .  S
H829       C1943   1.087       .  S
C830       H1948   1.088       .  S
C830        C831   1.324       .  D
C831        H833   1.088       .  S
H832       C1946   1.087       .  S
C834        C835   1.212       .  T
C836        C837   1.215       .  T
C838       C1955   1.533       .  S
C838        C844   1.538       .  S
C838        C842   1.514       .  S
C838       C1110   1.505       .  S
C839       C1954   1.532       .  S
C839        H846   1.087       .  S
C839        C840   1.367       .  D
C840        C841   1.551       .  S
C840       C1113   1.454       .  S
C841       C1961   1.555   1_455  S
C841        C843   1.551       .  S
C841        H847   1.111       .  S
C842        H848   1.086       .  S
C842       C1959   1.356       .  D
C843       C1958   1.357       .  D
C843       C1105   1.482       .  S
C844        H849   1.088       .  S
C844        C845   1.368       .  D
C845       C1957   1.556       .  S
C845       C1115   1.463       .  S
C850        C851   1.529       .  S
C850        C856   1.535       .  S
C850        C854   1.523       .  S
C850       C1100   1.506       .  S
C851        H858   1.087       .  S
C851        C852   1.363       .  D
C852        C853   1.554       .  S
C852       C1104   1.455       .  S
C853        C857   1.549       .  S
C853        C855   1.553       .  S
C853        H859   1.111       .  S
C854        H860   1.085       .  S
C854        C855   1.363       .  D
C855       C1096   1.489       .  S
C856        H861   1.086       .  S
C856        C857   1.366       .  D
C857       C1114   1.454       .  S
C862        C868   1.532       .  S
C862        C866   1.520       .  S
C862       C1089   1.505       .  S
C863        H870   1.087       .  S
C863        C864   1.365       .  D
C864       C1093   1.445       .  S
C865        C869   1.551       .  S
C865        C867   1.553       .  S
C865        H871   1.111       .  S
C866        H872   1.084       .  S
C866        C867   1.359       .  D
C867       C1085   1.487       .  S
C868        H873   1.087       .  S
C868        C869   1.367       .  D
C869       C1103   1.456       .  S
C874       C1991   1.539       .  S
C874        C880   1.533   1_655  S
C874        C878   1.536       .  S
C874       C2195   1.527       .  S
C875       C1990   1.537       .  S
C875        H882   1.087       .  S
C875        C876   1.368       .  D
C876       C1993   1.535       .  S
C876       C1083   1.444       .  S
C877       C1992   1.540       .  S
C877        C881   1.540   1_655  S
C877       C1995   1.532       .  S
C877        H883   1.111       .  S
C878        H884   1.084       .  S
C878       C1995   1.372       .  D
C879       C1993   1.531       .  S
C879       C1994   1.372       .  D
C879       C2191   1.486       .  S
C880        H885   1.087       .  S
C880        C881   1.367       .  D
C881       C1094   1.447       .  S
C886        C887   1.526       .  S
C886        C892   1.525       .  S
C886        C890   1.533       .  S
C886       C1069   1.498       .  S
C887        H894   1.087       .  S
C887        C888   1.358       .  D
C888        C889   1.547       .  S
C888       C1073   1.441       .  S
C889        C893   1.548       .  S
C889        C891   1.558       .  S
C889        H895   1.109       .  S
C890        H896   1.087       .  S
C890        C891   1.366       .  D
C891       C1065   1.494       .  S
C892        H897   1.087       .  S
C892        C893   1.359       .  D
C893       C1084   1.442       .  S
C898        C904   1.534       .  S
C898        C902   1.527       .  S
C898       C1057   1.513       .  S
C899        H906   1.087       .  S
C899        C900   1.359       .  D
C900       C1074   1.442       .  S
C901        C905   1.560       .  S
C901        C903   1.554       .  S
C901        H907   1.110       .  S
C902        H908   1.090       .  S
C902        C903   1.357       .  D
C903       C1061   1.487       .  S
C904        H909   1.089       .  S
C904        C905   1.365       .  D
C905       C1116   1.463       .  S
O910       Co930   1.959   1_545  S
O911       Co931   2.040       .  S
O911        C919   1.287       .  A
O912       Co932   1.943       .  S
O912        C920   1.257       .  A
O913       Co933   2.016       .  S
O913        C921   1.269       .  A
O914       Co931   2.034       .  S
O914        C920   1.277       .  A
O915       Co930   1.958   1_545  S
O916       Co933   2.024       .  S
O917        C918   1.257       .  A
C918       C1090   1.471       .  S
C919       C1048   1.444       .  S
C920       C1028   1.470       .  S
C921       C1062   1.489       .  S
O922       Co930   2.020       .  S
O922        C935   1.272       .  A
O923       Co931   2.014       .  S
O923        C936   1.255       .  A
O925        C938   1.294       .  A
O926       Co931   1.904       .  S
O926        C938   1.265       .  A
O927       Co930   2.039       .  S
O927        C937   1.281       .  A
O928        C935   1.247       .  A
O929       Co932   1.972       .  S
O929        C936   1.246       .  A
Co931       O934   2.006       .  S
Co932       O934   2.077       .  S
C935       C1018   1.453       .  S
C936       C1086   1.470       .  S
C937       C1038   1.473       .  S
C938       C1058   1.467       .  S
O939       Co959   2.009       .  S
O939        C947   1.269       .  A
O940        C948   1.287   1_455  A
O940       Co960   2.043       .  S
O941       Co961   1.979       .  S
O941        C949   1.258   1_655  A
O942       Co962   1.950       .  S
O943        C949   1.249       .  A
O943       Co960   1.966       .  S
O944       Co959   2.036       .  S
O944        C950   1.282   1_556  A
O945       Co962   1.907       .  S
O945       C2064   1.274       .  A
O946      Co2077   1.939       .  S
C947       C1051   1.456       .  S
C948       O2061   1.274       .  A
C948       C1076   1.461       .  S
C949       C1106   1.461       .  S
C950       C1011   1.496       .  S
O951       Co959   1.987       .  S
O951        C964   1.264       .  A
O952        C965   1.256       .  A
O952       Co960   1.927       .  S
O953       C2082   1.264       .  A
O954      Co2078   2.008   1_455  S
O954        C967   1.256       .  A
O955        C967   1.241       .  A
O955       Co960   1.940       .  S
O956       Co959   1.981       .  S
O956        C966   1.271       .  A
O957        C964   1.264       .  A
O958       Co961   2.022   1_455  S
O958        C965   1.278       .  A
Co959      O1800   2.037   1_556  S
Co960       O963   2.048   1_455  S
Co961      O2062   1.939       .  S
Co961       O963   2.055       .  S
Co962      O2070   2.010       .  S
Co962      O2079   1.951       .  S
O963      Co1796   2.040       .  S
O963      Co2078   1.951       .  S
C964       C1080   1.489       .  S
C965        C998   1.452       .  S
C966       O2069   1.264       .  A
C966       C1109   1.469       .  S
C967       C1041   1.448       .  S
O968       Co988   1.970   1_554  S
O968        C976   1.272       .  A
O969       Co989   2.098       .  S
O969        C977   1.298       .  A
O970       Co990   1.966       .  S
O970        C978   1.254       .  A
O971       Co991   1.957       .  S
O972       Co989   1.991       .  S
O972        C978   1.255       .  A
O973       Co988   1.856       .  S
O973        C979   1.253       .  A
O974       Co991   1.910       .  S
O974        C977   1.266       .  A
O975       Co990   1.958       .  S
C976       C1001   1.483       .  S
C977       C1066   1.487       .  S
C978       C1095   1.467       .  S
C979       C1021   1.443       .  S
O980       Co988   2.082       .  S
O980        C993   1.291       .  A
O981       Co989   1.955       .  S
O981        C994   1.263       .  A
O982        C995   1.248       .  A
O983       Co991   2.088       .  S
O983        C996   1.291       .  A
O984       Co989   1.895       .  S
O984        C996   1.261       .  A
O985       Co988   1.988       .  S
O985        C995   1.244       .  A
O986        C993   1.269       .  A
O987       Co990   2.034       .  S
O987        C994   1.282       .  A
Co989       O992   2.010       .  S
Co990       O992   2.040       .  S
Co991       O992   2.020       .  S
C993       C1070   1.456       .  S
C994       C1031   1.467       .  S
C995       C1099   1.466       .  S
C996       C1008   1.458       .  S
C997        C998   1.405       .  A
C997       C1002   1.388       .  A
C997       H1003   1.084       .  S
C999       C1000   1.401   1_556  A
C999       H1004   1.083       .  S
C1000      C1001   1.407       .  A
C1000      H1005   1.083       .  S
C1002      H1006   1.084       .  S
C1007      C1008   1.403       .  A
C1007      C1012   1.392       .  A
C1007      H1013   1.083       .  S
C1009      C1010   1.404       .  A
C1009      H1014   1.083       .  S
C1010      C1011   1.409   1_556  A
C1010      H1015   1.083       .  S
C1012      H1016   1.083       .  S
C1017      C1018   1.411   1_554  A
C1017      C1022   1.385       .  A
C1017      H1023   1.083       .  S
C1018      C1019   1.395       .  A
C1019      C1020   1.387       .  A
C1019      H1024   1.083       .  S
C1020      C1021   1.406       .  A
C1020      H1025   1.084       .  S
C1021      C1022   1.390   1_556  A
C1022      H1026   1.084       .  S
C1027      C1028   1.409       .  A
C1027      C1032   1.395       .  A
C1027      H1033   1.084       .  S
C1028      C1029   1.399       .  A
C1029      C1030   1.397       .  A
C1029      H1034   1.083       .  S
C1030      C1031   1.409       .  A
C1030      H1035   1.083       .  S
C1031      C1032   1.397       .  A
C1032      H1036   1.083       .  S
C1037      C1042   1.387       .  A
C1037      H1043   1.083       .  S
C1038      C1039   1.405       .  A
C1039      C1040   1.401       .  A
C1039      H1044   1.083       .  S
C1040      H1045   1.084       .  S
C1041      C1042   1.398       .  A
C1042      H1046   1.083       .  S
C1047      C1048   1.403       .  A
C1047      H1053   1.084       .  S
C1048      C1049   1.395       .  A
C1049      C1050   1.387       .  A
C1049      H1054   1.083       .  S
C1050      H1055   1.084       .  S
C1051      C1052   1.399       .  A
C1052      H1056   1.083       .  S
C1057      C1058   1.344       .  D
C1058      H1060   1.087       .  S
C1061      H1063   1.090       .  S
C1061      C1062   1.339       .  D
C1065      H1067   1.088       .  S
C1065      C1066   1.343       .  D
C1066      H1068   1.085       .  S
C1069      H1071   1.089       .  S
C1069      C1070   1.336       .  D
C1070      H1072   1.086       .  S
C1073      C1074   1.206       .  T
C1075      H2193   1.086   1_655  S
C1075      C1076   1.339       .  D
C1075      C1995   1.486       .  S
C1076      H1078   1.083       .  S
H1077      C2191   1.083       .  S
C1079      C1990   1.524       .  S
C1079      H2197   1.087       .  S
C1079      C1080   1.346       .  D
C1080      H1082   1.086       .  S
H1081      C2195   1.087       .  S
C1083      C1084   1.207       .  T
C1085      H1087   1.086       .  S
C1085      C1086   1.358       .  D
C1086      H1088   1.083       .  S
C1089      H1091   1.087       .  S
C1089      C1090   1.334       .  D
C1093      C1094   1.209       .  T
C1095      H1097   1.084       .  S
C1095      C1096   1.351       .  D
C1096      H1098   1.086       .  S
C1099      H1101   1.087       .  S
C1099      C1100   1.343       .  D
C1100      H1102   1.087       .  S
C1103      C1104   1.215       .  T
C1105      H1107   1.086   1_455  S
C1105      C1106   1.350       .  D
C1106      H2224   1.087       .  S
H1108      C2222   1.087       .  S
C1109      H2227   1.086       .  S
C1109      C1110   1.330       .  D
C1110      H1112   1.087       .  S
H1111      C2225   1.086   1_655  S
C1113      C1114   1.214       .  T
C1115      C1116   1.219       .  T
C1117      C1123   1.534       .  S
C1117      C1121   1.524       .  S
C1117      C1389   1.501   1_655  S
C1118      H1125   1.087       .  S
C1118      C1119   1.365       .  D
C1119      C1120   1.553       .  S
C1119      C1392   1.450       .  S
C1120      C1122   1.552       .  S
C1120      H1126   1.111       .  S
C1121      H1127   1.087   1_655  S
C1122      C1384   1.487       .  S
C1123      H1128   1.086       .  S
C1123      C1124   1.364       .  D
C1124      C1394   1.459       .  S
C1129      C1130   1.547       .  S
C1129      C1135   1.536       .  S
C1129      C1133   1.527       .  S
C1129      C1379   1.527       .  S
C1130      H1137   1.086       .  S
C1130      C1131   1.375       .  D
C1131      C1132   1.546       .  S
C1131      C1383   1.466       .  S
C1132      C1136   1.540       .  S
C1132      C1134   1.540       .  S
C1132      H1138   1.111       .  S
C1133      H1139   1.085       .  S
C1133      C1134   1.364       .  D
C1134      C1375   1.472       .  S
C1135      H1140   1.088       .  S
C1135      C1136   1.365       .  D
C1136      C1393   1.451       .  S
C1141      C1700   1.532   1_545  S
C1141      C1147   1.533       .  S
C1141      C1145   1.519       .  S
C1141      C1368   1.512       .  S
C1142      C1699   1.533       .  S
C1142      H1149   1.087       .  S
C1142      C1143   1.362       .  D
C1143      C1702   1.548       .  S
C1143      C1372   1.448       .  S
C1144      C1701   1.562   1_545  S
C1144      C1148   1.561       .  S
C1144      C1146   1.564       .  S
C1144      H1150   1.110       .  S
C1145      H1151   1.083       .  S
C1145      C1146   1.370       .  D
C1146      C1364   1.508       .  S
C1147      H1152   1.086       .  S
C1147      C1148   1.363       .  D
C1148      C1382   1.464       .  S
C1153      C1159   1.537       .  S
C1153      C1157   1.528       .  S
C1154      H1161   1.086       .  S
C1154      C1155   1.368       .  D
C1155      C1362   1.450       .  S
C1156      C1160   1.540       .  S
C1156      H1162   1.111       .  S
C1157      H1163   1.085       .  S
C1159      H1164   1.086       .  S
C1159      C1160   1.370       .  D
C1160      C1373   1.449       .  S
C1165      C1166   1.529       .  S
C1165      C1171   1.527       .  S
C1165      C1169   1.538       .  S
C1165      C1348   1.507       .  S
C1166      H1173   1.088       .  S
C1166      C1167   1.357       .  D
C1167      C1168   1.550       .  S
C1167      C1352   1.450       .  S
C1168      C1172   1.549       .  S
C1168      C1170   1.551       .  S
C1168      H1174   1.111       .  S
C1169      H1175   1.082       .  S
C1169      C1170   1.379       .  D
C1170      C1344   1.504       .  S
C1171      H1176   1.087       .  S
C1171      C1172   1.360       .  D
C1172      C1363   1.448       .  S
C1177      C1736   1.535   1_545  S
C1177      C1183   1.529       .  S
C1177      C1181   1.529       .  S
C1177      C1336   1.500       .  S
C1178      C1735   1.529       .  S
C1178      H1185   1.087       .  S
C1178      C1179   1.360       .  D
C1179      C1738   1.551       .  S
C1179      C1353   1.451       .  S
C1180      C1737   1.556   1_545  S
C1180      C1184   1.557       .  S
C1180      C1182   1.558       .  S
C1180      H1186   1.111       .  S
C1181      H1187   1.085       .  S
C1181      C1182   1.365       .  D
C1182      C1340   1.494       .  S
C1183      H1188   1.087       .  S
C1183      C1184   1.360       .  D
C1184      C1395   1.457       .  S
O1189     Co1209   1.988       .  S
O1189      C1755   1.267       .  A
O1190     Co1210   1.955   1_556  S
O1190      C1198   1.262       .  A
O1191     Co1211   2.088   1_556  S
O1191      C1199   1.289   1_556  A
O1192     Co1212   1.969       .  S
O1192      C1200   1.255       .  A
O1193     Co1210   1.876       .  S
O1193      C1199   1.263       .  A
O1194     Co1209   2.019       .  S
O1194      C1758   1.253       .  A
O1195     Co1212   1.920       .  S
O1195      C1477   1.259       .  A
O1196      C1197   1.239       .  A
O1196     Co1490   1.910       .  S
C1197      O1747   1.274       .  A
C1197      C1369   1.467       .  S
C1198      O1474   1.278       .  A
C1198      C1327   1.465       .  S
C1199      C1307   1.451   1_554  S
C1200      O1752   1.264   1_545  A
C1200      C1341   1.482   1_545  S
O1201     Co1209   1.944       .  S
O1201      C1214   1.259       .  A
O1202     Co1210   2.100       .  S
O1202      C1215   1.294       .  A
O1203     Co1769   1.961   1_554  S
O1203      C1495   1.240   1_554  A
O1204     Co1491   1.952   1_554  S
O1204      C1217   1.248       .  A
O1205     Co1210   2.018       .  S
O1205      C1217   1.259       .  A
O1206     Co1209   1.974       .  S
O1206      C1216   1.261       .  A
O1207     Co1770   2.050       .  S
O1207      C1214   1.281       .  A
O1208     Co1211   1.928       .  S
O1208      C1215   1.266       .  A
Co1209     O2050   2.074       .  S
Co1210     O1213   2.003   1_554  S
Co1211     O1475   2.003   1_554  S
Co1211     O1761   1.955   1_545  S
Co1211     O1213   2.011   1_554  S
Co1212     O1483   2.026       .  S
Co1212     O1765   2.027   1_545  S
Co1212     O1492   2.059       .  S
O1213     Co2046   2.031   1_545  S
O1213     Co1491   2.008       .  S
C1214      C1297   1.485       .  S
C1215      C1365   1.482       .  S
C1216      O1482   1.255       .  A
C1216      C1317   1.450       .  S
C1217      C1337   1.470       .  S
O1218     Co1238   2.029       .  S
O1218      C1226   1.276       .  A
O1219     Co1239   1.958       .  S
O1219      C1227   1.254       .  A
O1220     Co1240   2.040   1_554  S
O1220      C1228   1.272       .  A
O1221     Co1241   1.956   1_655  S
O1221      C1508   1.269       .  A
O1222     Co1239   1.967       .  S
O1222      C1228   1.262       .  A
O1223     Co1238   2.001       .  S
O1223      C1229   1.272       .  A
O1224     Co1241   1.914       .  S
O1225      C1505   1.262   1_554  A
C1226      O1504   1.250       .  A
C1226      C1330   1.465       .  S
C1227      C1355   1.461       .  S
C1228      C1385   1.492       .  S
C1229      O1500   1.270       .  A
C1229      C1290   1.475       .  S
O1230     Co1238   1.991   1_455  S
O1230      C1243   1.271   1_455  A
O1231     Co1239   2.019       .  S
O1231      C1244   1.271       .  A
O1232     Co1519   2.028       .  S
O1233      C1246   1.264   1_556  A
O1234     Co1239   2.030       .  S
O1234      C1246   1.277       .  A
O1235     Co1238   1.963   1_455  S
O1235      C1245   1.264   1_455  A
O1236     Co1520   2.036       .  S
O1236      C1243   1.277       .  A
O1237     Co1240   1.941       .  S
O1237      C1244   1.251   1_556  A
Co1239     O1242   2.032       .  S
Co1240     O1511   1.969       .  S
Co1240     O1242   2.060   1_556  S
Co1241     O1515   2.018   1_454  S
C1243      C1359   1.499       .  S
C1244      C1277   1.470       .  S
C1245      C1388   1.469       .  S
C1246      C1320   1.472       .  S
O1247     Co1267   1.965       .  S
O1247      C1255   1.268       .  A
O1248      C1256   1.294       .  A
O1248     Co1268   2.069       .  S
O1249     Co1269   1.993       .  S
O1249      C1257   1.259       .  A
O1250     Co1270   1.971       .  S
O1250      C1537   1.271   1_554  A
O1251      C1257   1.244       .  A
O1251     Co1268   1.952       .  S
O1252     Co1267   1.889       .  S
O1252      C1258   1.270       .  A
O1253     Co1270   1.925       .  S
O1253      C1256   1.276       .  A
O1254     Co1269   1.935       .  S
O1254      C1534   1.254   1_554  A
C1255      O1533   1.278       .  A
C1255      C1280   1.482       .  S
C1256      C1345   1.485       .  S
C1257      C1374   1.456       .  S
C1258      O1529   1.296       .  A
C1258      C1300   1.480       .  S
O1259     Co1267   2.096       .  S
O1259      C1272   1.292       .  A
O1260      C1273   1.259       .  A
O1260     Co1268   1.929       .  S
O1261     Co1548   1.973       .  S
O1261      C1274   1.251       .  A
O1262     Co1270   2.037       .  S
O1262      C1275   1.264       .  A
O1263      C1275   1.237       .  A
O1263     Co1268   1.917       .  S
O1264     Co1267   2.040       .  S
O1264      C1274   1.267       .  A
O1265     Co1549   1.892       .  S
O1265      C1272   1.265       .  A
O1266     Co1269   2.025       .  S
O1266      C1273   1.278       .  A
Co1267     O1550   2.003       .  S
Co1268     O1271   2.039       .  S
Co1269     O1540   2.012   1_554  S
Co1269     O1271   2.055       .  S
Co1270     O1544   2.019   1_554  S
Co1270     O1271   1.981       .  S
O1271     Co1546   2.040   1_554  S
C1272      C1349   1.466       .  S
C1273      C1310   1.464   1_554  S
C1274      C1378   1.483       .  S
C1275      C1287   1.456       .  S
C1276      C1277   1.398       .  A
C1276      C1281   1.391       .  A
C1276      H1282   1.083       .  S
C1277      C1557   1.410   1_554  A
C1278      C1556   1.406       .  A
C1278      C1279   1.400       .  A
C1278      H1283   1.083       .  S
C1279      C1280   1.406       .  A
C1279      H1284   1.082       .  S
C1280      C1560   1.406       .  A
C1281      C1559   1.409   1_554  A
C1281      H1285   1.083       .  S
C1286      C1287   1.404       .  A
C1286      C1291   1.391       .  A
C1286      H1292   1.082       .  S
C1287      C1567   1.397   1_554  A
C1288      C1566   1.401       .  A
C1288      C1289   1.393       .  A
C1288      H1293   1.083       .  S
C1289      C1290   1.408       .  A
C1289      H1294   1.083       .  S
C1290      C1570   1.402       .  A
C1291      C1569   1.402       .  A
C1291      H1295   1.083       .  S
C1296      C1297   1.405       .  A
C1296      C1301   1.410       .  A
C1296      H1302   1.083       .  S
C1297      C1298   1.409       .  A
C1298      C1299   1.388       .  A
C1298      H1303   1.084       .  S
C1299      C1300   1.399       .  A
C1299      H1304   1.083       .  S
C1300      C1301   1.411       .  A
C1301      H1305   1.083       .  S
C1306      C1307   1.401       .  A
C1306      C1311   1.396       .  A
C1306      H1312   1.084       .  S
C1307      C1308   1.397       .  A
C1308      C1309   1.384       .  A
C1308      H1313   1.084       .  S
C1309      C1310   1.406       .  A
C1309      H1314   1.084       .  S
C1310      C1311   1.404       .  A
C1311      H1315   1.082       .  S
C1316      C1596   1.407   1_554  A
C1316      C1321   1.396       .  A
C1316      H1322   1.084       .  S
C1317      C1595   1.402       .  A
C1317      C1318   1.399       .  A
C1318      C1319   1.379       .  A
C1318      H1323   1.084       .  S
C1319      C1599   1.399       .  A
C1319      H1324   1.084       .  S
C1320      C1598   1.404   1_554  A
C1320      C1321   1.402       .  A
C1321      H1325   1.082       .  S
C1326      C1327   1.407       .  A
C1326      C1610   1.399       .  A
C1326      H1332   1.083       .  S
C1327      C1328   1.401       .  A
C1328      C1329   1.385   1_556  A
C1328      H1333   1.083   1_556  S
C1329      C1609   1.401   1_554  A
C1329      H1334   1.084       .  S
C1330      C1608   1.412       .  A
C1330      C1331   1.396       .  A
C1331      C1605   1.389       .  A
C1331      H1335   1.083       .  S
C1336      H1896   1.088   1_545  S
C1336      C1337   1.348       .  D
C1337      H1339   1.086       .  S
H1338      C1894   1.087       .  S
C1340      H1342   1.086       .  S
C1340      C1341   1.357   1_545  D
C1341      H1901   1.086       .  S
H1343      C1899   1.085       .  S
C1344      H1346   1.086       .  S
C1344      C1345   1.349       .  D
C1345      H1347   1.082       .  S
C1348      H1350   1.089       .  S
C1348      C1349   1.340       .  D
C1349      H1351   1.086       .  S
C1352      C1353   1.212       .  T
C1354      C1355   1.338       .  D
C1355      H1357   1.089       .  S
C1358      C1359   1.352   1_455  D
C1359      H1361   1.086       .  S
C1362      C1363   1.211       .  T
C1364      H1366   1.086       .  S
C1364      C1365   1.358       .  D
C1365      H1367   1.081       .  S
C1368      H1370   1.088       .  S
C1368      C1369   1.332       .  D
C1369      H1929   1.090       .  S
H1371      C1927   1.089       .  S
C1372      C1373   1.210       .  T
C1374      H1376   1.087       .  S
C1374      C1375   1.339       .  D
C1375      H1377   1.087       .  S
C1378      H1380   1.087       .  S
C1378      C1379   1.347       .  D
C1379      H1381   1.087       .  S
C1382      C1383   1.220       .  T
C1384      H1386   1.088       .  S
C1384      C1385   1.346       .  D
C1388      C1389   1.336   1_655  D
C1389      H1391   1.087       .  S
C1392      C1393   1.212       .  T
C1394      C1395   1.216       .  T
C1396      C1402   1.539   1_455  S
C1396      C1400   1.511       .  S
C1396      C1668   1.502       .  S
C1397      H1404   1.087       .  S
C1397      C1398   1.364       .  D
C1398      C1399   1.546       .  S
C1398      C1671   1.444       .  S
C1399      C1401   1.548       .  S
C1399      H1405   1.111       .  S
C1400      H1406   1.086       .  S
C1401      C1663   1.480       .  S
C1402      H1407   1.087       .  S
C1402      C1403   1.363       .  D
C1403      C1673   1.451       .  S
C1408      C1409   1.536       .  S
C1408      C1414   1.537       .  S
C1408      C1412   1.531       .  S
C1408      C1658   1.523       .  S
C1409      H1416   1.087       .  S
C1409      C1410   1.368       .  D
C1410      C1411   1.539       .  S
C1410      C1662   1.446       .  S
C1411      C1415   1.542       .  S
C1411      C1413   1.537       .  S
C1411      H1417   1.111       .  S
C1412      H1418   1.086       .  S
C1412      C1413   1.368       .  D
C1413      C1654   1.484       .  S
C1414      H1419   1.086       .  S
C1414      C1415   1.368       .  D
C1415      C1672   1.446       .  S
C1420      C1979   1.528   1_545  S
C1420      C1426   1.527       .  S
C1420      C1424   1.527       .  S
C1420      C1647   1.500       .  S
C1421      C1978   1.535       .  S
C1421      H1428   1.086       .  S
C1421      C1422   1.368       .  D
C1422      C1981   1.557       .  S
C1422      C1651   1.464       .  S
C1423      C1980   1.547   1_545  S
C1423      C1427   1.548       .  S
C1423      C1425   1.551       .  S
C1423      H1429   1.111       .  S
C1424      H1430   1.086       .  S
C1424      C1425   1.367       .  D
C1425      C1643   1.489       .  S
C1426      H1431   1.087       .  S
C1426      C1427   1.362       .  D
C1427      C1661   1.445       .  S
C1432      C1438   1.534       .  S
C1432      C1436   1.527       .  S
C1433      H1440   1.087       .  S
C1433      C1434   1.371       .  D
C1434      C1641   1.460       .  S
C1435      C1439   1.557       .  S
C1435      H1441   1.110       .  S
C1436      H1442   1.084       .  S
C1438      H1443   1.085       .  S
C1438      C1439   1.368       .  D
C1439      C1652   1.464       .  S
C1444      C1445   1.540       .  S
C1444      C1450   1.527       .  S
C1444      C1448   1.526       .  S
C1444      C1627   1.517       .  S
C1445      H1452   1.086       .  S
C1445      C1446   1.372       .  D
C1446      C1447   1.554       .  S
C1446      C1631   1.461       .  S
C1447      C1451   1.560       .  S
C1447      C1449   1.560       .  S
C1447      H1453   1.110       .  S
C1448      H1454   1.087       .  S
C1448      C1449   1.359       .  D
C1449      C1623   1.500       .  S
C1450      H1455   1.087       .  S
C1450      C1451   1.365       .  D
C1451      C1642   1.459       .  S
C1456      C2015   1.526   1_545  S
C1456      C1462   1.527       .  S
C1456      C1460   1.539       .  S
C1456      C1615   1.511       .  S
C1457      C2014   1.532       .  S
C1457      H1464   1.087       .  S
C1457      C1458   1.364       .  D
C1458      C2017   1.555       .  S
C1458      C1632   1.460       .  S
C1459      C2016   1.556   1_545  S
C1459      C1463   1.556       .  S
C1459      C1461   1.561       .  S
C1459      H1465   1.109       .  S
C1460      H1466   1.088       .  S
C1460      C1461   1.370       .  D
C1461      C1619   1.510       .  S
C1462      H1467   1.087       .  S
C1462      C1463   1.361       .  D
C1463      C1674   1.451       .  S
O1468     Co1488   2.084       .  S
O1468      C2034   1.303       .  A
O1469     Co1489   2.031       .  S
O1469      C1477   1.280       .  A
O1470      C1478   1.259       .  A
O1470     Co1490   1.947       .  S
O1471     Co1491   2.034       .  S
O1471      C1479   1.274       .  A
O1472     Co1489   2.021       .  S
O1472      C1478   1.270       .  A
O1473     Co1488   2.079       .  S
O1473      C2037   1.299       .  A
O1474     Co1491   2.016       .  S
O1475      C1476   1.265       .  A
C1476      O2026   1.261       .  A
C1476      C1648   1.468       .  S
C1477      C1606   1.459       .  S
C1478      C1586   1.467       .  S
C1479      O2031   1.270       .  A
C1479      C1620   1.505       .  S
O1480     Co1488   1.989       .  S
O1480      C1493   1.255       .  A
O1481     Co1489   2.005   1_565  S
O1481      C1494   1.266   1_565  A
O1482     Co2048   1.959       .  S
O1483      C1496   1.263       .  A
O1484     Co1489   1.957   1_565  S
O1484      C1496   1.245   1_565  A
O1485     Co1488   1.997       .  S
O1485      C1495   1.250       .  A
O1486     Co2049   1.939       .  S
O1486      C1493   1.240       .  A
O1487      C1494   1.255       .  A
O1487     Co1490   1.981       .  S
Co1488     O1771   2.228   1_556  S
Co1489     O1492   2.065       .  S
Co1490     O2040   2.049   1_545  S
Co1490     O1492   2.027       .  S
Co1491     O2044   1.923   1_546  S
O1492     Co1767   1.974   1_545  S
C1493      C1576   1.466       .  S
C1494      C1644   1.475   1_545  S
C1495      C1596   1.476       .  S
C1496      C1616   1.469   1_545  S
O1497     Co1517   2.016       .  S
O1497      C1505   1.273       .  A
O1498     Co1518   2.048       .  S
O1498      C1506   1.276       .  A
O1499     Co1519   2.054       .  S
O1499      C1507   1.291       .  A
O1500     Co1520   1.974       .  S
O1501     Co1518   1.898       .  S
O1501      C1507   1.270       .  A
O1502     Co1517   2.010       .  S
O1502      C1508   1.278   1_556  A
O1503     Co1520   1.904       .  S
C1505      C1609   1.459       .  S
C1506      C1634   1.477       .  S
C1507      C1664   1.465       .  S
C1508      C1569   1.463       .  S
O1509     Co1517   1.986   1_455  S
O1509      C1522   1.266       .  A
O1510     Co1518   1.965       .  S
O1510      C1523   1.253       .  A
O1512      C1525   1.255       .  A
O1513     Co1518   1.986       .  S
O1513      C1525   1.261       .  A
O1514     Co1517   1.983   1_455  S
O1514      C1524   1.271   1_455  A
O1515      C1522   1.267   1_655  A
O1516     Co1519   1.998       .  S
O1516      C1523   1.259       .  A
Co1518     O1521   1.977       .  S
Co1519     O1521   2.135       .  S
C1522      C1638   1.492       .  S
C1523      C1556   1.481       .  S
C1524      C1667   1.462   1_655  S
C1525      C1599   1.449       .  S
O1526     Co1546   2.029       .  S
O1526      C1534   1.274       .  A
O1527     Co1547   1.987       .  S
O1527      C1535   1.263       .  A
O1528     Co1548   2.037       .  S
O1528      C1536   1.275       .  A
O1529     Co1549   2.099       .  S
O1530     Co1547   1.953       .  S
O1530      C1536   1.259       .  A
O1531     Co1546   1.984       .  S
O1531      C1537   1.271       .  A
O1532     Co1549   2.027       .  S
O1532      C1535   1.264       .  A
O1533     Co1548   2.028       .  S
C1534      C1559   1.468       .  S
C1535      C1624   1.502       .  S
C1536      C1653   1.470       .  S
C1537      C1579   1.457       .  S
O1538     Co1546   1.980       .  S
O1538      C1551   1.271       .  A
O1539     Co1547   2.039       .  S
O1539      C1552   1.274       .  A
O1540      C1553   1.268       .  A
O1541     Co1549   1.971       .  S
O1541      C1554   1.271       .  A
O1542     Co1547   2.012       .  S
O1542      C1554   1.276       .  A
O1543     Co1546   1.984       .  S
O1543      C1553   1.267       .  A
O1544      C1551   1.273       .  A
O1545     Co1548   1.934       .  S
O1545      C1552   1.253       .  A
Co1547     O1550   2.032       .  S
Co1548     O1550   2.025       .  S
Co1549     O1550   2.004       .  S
C1551      C1628   1.484       .  S
C1552      C1589   1.472       .  S
C1553      C1657   1.485       .  S
C1554      C1566   1.474       .  S
C1555      C1556   1.406       .  A
C1555      C1560   1.397       .  A
C1555      H1561   1.083       .  S
C1557      C1558   1.395       .  A
C1557      H1562   1.083       .  S
C1558      C1559   1.398       .  A
C1558      H1563   1.083       .  S
C1560      H1564   1.084       .  S
C1565      C1566   1.408       .  A
C1565      C1570   1.397       .  A
C1565      H1571   1.083       .  S
C1567      C1568   1.391       .  A
C1567      H1572   1.085       .  S
C1568      C1569   1.406   1_556  A
C1568      H1573   1.083       .  S
C1570      H1574   1.083       .  S
C1575      C1576   1.408   1_554  A
C1575      C1580   1.394       .  A
C1575      H1581   1.083       .  S
C1576      C1577   1.400       .  A
C1577      C1578   1.389       .  A
C1577      H1582   1.084       .  S
C1578      C1579   1.405       .  A
C1578      H1583   1.083       .  S
C1579      C1580   1.398   1_556  A
C1580      H1584   1.084       .  S
C1585      C1586   1.399       .  A
C1585      C1590   1.390       .  A
C1585      H1591   1.083       .  S
C1586      C1587   1.406       .  A
C1587      C1588   1.401       .  A
C1587      H1592   1.083       .  S
C1588      C1589   1.401       .  A
C1588      H1593   1.084       .  S
C1589      C1590   1.408       .  A
C1590      H1594   1.083       .  S
C1595      C1600   1.394       .  A
C1595      H1601   1.084       .  S
C1596      C1597   1.404       .  A
C1597      C1598   1.398       .  A
C1597      H1602   1.083       .  S
C1598      H1603   1.084       .  S
C1599      C1600   1.403       .  A
C1600      H1604   1.082       .  S
C1605      C1606   1.408       .  A
C1605      H1611   1.084       .  S
C1606      C1607   1.395       .  A
C1607      C1608   1.391       .  A
C1607      H1612   1.083       .  S
C1608      H1613   1.083       .  S
C1609      C1610   1.401       .  A
C1610      H1614   1.083       .  S
C1615      H2175   1.087       .  S
C1615      C1616   1.342   1_545  D
C1616      H1618   1.087       .  S
H1617      C2173   1.087       .  S
C1619      H1621   1.088       .  S
C1619      C1620   1.352       .  D
C1620      H2180   1.086       .  S
H1622      C2178   1.084       .  S
C1623      H1625   1.088       .  S
C1623      C1624   1.346       .  D
C1624      H1626   1.086       .  S
C1627      H1629   1.088       .  S
C1627      C1628   1.344       .  D
C1628      H1630   1.086       .  S
C1631      C1632   1.218       .  T
C1633      C1634   1.360       .  D
C1634      H1636   1.071       .  S
C1637      C1638   1.348       .  D
C1638      H1640   1.085       .  S
C1641      C1642   1.217       .  T
C1643      H1645   1.086       .  S
C1643      C1644   1.352   1_545  D
C1644      H1646   1.086       .  S
C1647      H1649   1.087       .  S
C1647      C1648   1.342       .  D
C1648      H2208   1.086       .  S
H1650      C2206   1.094       .  S
C1651      C1652   1.220       .  T
C1653      H1655   1.089       .  S
C1653      C1654   1.342       .  D
C1654      H1656   1.086       .  S
C1657      H1659   1.086       .  S
C1657      C1658   1.343       .  D
C1658      H1660   1.086       .  S
C1661      C1662   1.208       .  T
C1663      H1665   1.086       .  S
C1663      C1664   1.352       .  D
C1667      C1668   1.326       .  D
C1668      H1670   1.087       .  S
C1671      C1672   1.208       .  T
C1673      C1674   1.212       .  T
C1675      C1681   1.536   1_455  S
C1675      C1679   1.509       .  S
C1675      C1947   1.491       .  S
C1676      H1683   1.087       .  S
C1676      C1677   1.363       .  D
C1677      C1678   1.556       .  S
C1677      C1950   1.450       .  S
C1678      C1680   1.555       .  S
C1678      H1684   1.111       .  S
C1679      H1685   1.087       .  S
C1680      C1942   1.483       .  S
C1681      H1686   1.086       .  S
C1681      C1682   1.364       .  D
C1682      C1952   1.459       .  S
C1687      C1688   1.533       .  S
C1687      C1693   1.541       .  S
C1687      C1691   1.525       .  S
C1687      C1937   1.515       .  S
C1688      H1695   1.086       .  S
C1688      C1689   1.368       .  D
C1689      C1690   1.547       .  S
C1689      C1941   1.452       .  S
C1690      C1694   1.543       .  S
C1690      C1692   1.543       .  S
C1690      H1696   1.111       .  S
C1691      H1697   1.088       .  S
C1691      C1692   1.353       .  D
C1692      C1933   1.470       .  S
C1693      H1698   1.086       .  S
C1693      C1694   1.373       .  D
C1694      C1951   1.452       .  S
C1699      C1705   1.531       .  S
C1699      C1703   1.508       .  S
C1699      C1926   1.499       .  S
C1700      H1707   1.087       .  S
C1700      C1701   1.363       .  D
C1701      C1930   1.466       .  S
C1702      C1706   1.551       .  S
C1702      C1704   1.548       .  S
C1702      H1708   1.111       .  S
C1703      H1709   1.087       .  S
C1703      C1704   1.363       .  D
C1704      C1922   1.477       .  S
C1705      H1710   1.087       .  S
C1705      C1706   1.365       .  D
C1706      C1940   1.451       .  S
C1711      C1717   1.541       .  S
C1711      C1715   1.538       .  S
C1712      H1719   1.086       .  S
C1712      C1713   1.370       .  D
C1713      C1920   1.464       .  S
C1714      C1718   1.550       .  S
C1714      H1720   1.111       .  S
C1715      H1721   1.082       .  S
C1717      H1722   1.086       .  S
C1717      C1718   1.373       .  D
C1718      C1931   1.467       .  S
C1723      C1724   1.528       .  S
C1723      C1729   1.528       .  S
C1723      C1727   1.538       .  S
C1723      C1906   1.522       .  S
C1724      H1731   1.087       .  S
C1724      C1725   1.361       .  D
C1725      C1726   1.562       .  S
C1725      C1910   1.459       .  S
C1726      C1730   1.562       .  S
C1726      C1728   1.567       .  S
C1726      H1732   1.110       .  S
C1727      H1733   1.087       .  S
C1727      C1728   1.372       .  D
C1728      C1902   1.517       .  S
C1729      H1734   1.087       .  S
C1729      C1730   1.364       .  D
C1730      C1921   1.462       .  S
C1735      C1741   1.531       .  S
C1735      C1739   1.538       .  S
C1735      C1894   1.507       .  S
C1736      H1743   1.087       .  S
C1736      C1737   1.361       .  D
C1737      C1911   1.460       .  S
C1738      C1742   1.557       .  S
C1738      C1740   1.561       .  S
C1738      H1744   1.111       .  S
C1739      H1745   1.086       .  S
C1739      C1740   1.366       .  D
C1740      C1898   1.508       .  S
C1741      H1746   1.087       .  S
C1741      C1742   1.365       .  D
C1742      C1953   1.458       .  S
O1747     Co1767   2.051   1_545  S
O1748     Co1768   2.020       .  S
O1748      C1756   1.273       .  A
O1749     Co1769   1.985       .  S
O1749      C1757   1.265   1_556  A
O1750     Co1770   2.027       .  S
O1750      C1758   1.252       .  A
O1751     Co1768   1.976       .  S
O1751      C1757   1.261       .  A
O1752     Co1767   2.016       .  S
O1753     Co1770   1.918       .  S
O1753      C2035   1.276       .  A
O1754     Co2048   1.952       .  S
O1754      C1755   1.252       .  A
C1755      C1927   1.456       .  S
C1756      O2032   1.262   1_554  A
C1756      C1885   1.477   1_554  S
C1757      C1865   1.465       .  S
C1758      C1899   1.492       .  S
O1759     Co1767   1.977       .  S
O1759      C1772   1.269       .  A
O1760     Co1768   1.979       .  S
O1760      C1773   1.267       .  A
O1761      C2053   1.265   1_554  A
O1762     Co2049   2.033   1_554  S
O1762      C1775   1.274       .  A
O1763     Co1768   1.956       .  S
O1763      C1775   1.261       .  A
O1764     Co1767   1.875       .  S
O1764      C1774   1.269       .  A
O1765      C1772   1.279       .  A
O1766     Co1769   1.999   1_554  S
O1766      C1773   1.267       .  A
Co1768     O1771   2.050       .  S
Co1769     O2033   1.883       .  S
Co1769     O1771   1.922   1_556  S
Co1770     O2041   2.096       .  S
Co1770     O2050   2.052       .  S
O1771     Co2049   1.944   1_554  S
C1772      C1855   1.478       .  S
C1773      C1923   1.457       .  S
C1774      O2040   1.293       .  A
C1774      C1875   1.435       .  S
C1775      C1895   1.478       .  S
O1776     Co1796   2.016       .  S
O1776      C1784   1.269       .  A
O1777     Co1797   2.091       .  S
O1777      C1785   1.292       .  A
O1778     Co1798   1.957       .  S
O1778      C1786   1.255       .  A
O1779     Co1799   1.980       .  S
O1779      C2066   1.272       .  A
O1780     Co1797   2.002       .  S
O1780      C1786   1.260       .  A
O1781     Co1796   2.014       .  S
O1781      C1787   1.276       .  A
O1782     Co1799   1.916   1_455  S
O1783      C2063   1.261   1_554  A
C1784      O2062   1.254       .  A
C1784      C1888   1.453       .  S
C1785      C1913   1.477       .  S
C1786      C1943   1.463       .  S
C1787      O2058   1.265       .  A
C1787      C1848   1.460       .  S
O1788     Co1796   1.989   1_455  S
O1788      C1801   1.267   1_455  A
O1789     Co1797   1.973   1_556  S
O1789      C1802   1.271   1_556  A
O1790     Co2077   1.980       .  S
O1791      C1804   1.296       .  A
O1792     Co1797   1.892       .  S
O1792      C1804   1.265       .  A
O1793     Co1796   1.970   1_455  S
O1793      C1803   1.269       .  A
O1794     Co2078   2.030       .  S
O1794      C1801   1.272       .  A
O1795     Co1798   2.023       .  S
O1795      C1802   1.277       .  A
Co1797     O1800   2.000       .  S
Co1798     O2069   1.991   1_554  S
Co1798     O1800   2.038       .  S
Co1799     O2073   2.011   1_554  S
C1801      C1917   1.497       .  S
C1802      C1835   1.481   1_554  S
C1803      C1946   1.454       .  S
C1804      C1878   1.474       .  S
O1805     Co1825   2.005       .  S
O1805      C1813   1.269       .  A
O1806     Co1826   2.003       .  S
O1806      C1814   1.269       .  A
O1807     Co1827   2.003   1_554  S
O1807      C1815   1.264       .  A
O1808     Co1828   2.099   1_554  S
O1808      C2095   1.296   1_554  A
O1809     Co1826   1.972       .  S
O1809      C1815   1.266       .  A
O1810     Co1825   2.045       .  S
O1810      C1816   1.283       .  A
O1811     Co1828   2.033   1_554  S
O1811      C1814   1.271       .  A
O1812     Co1827   2.040       .  S
O1812      C2092   1.283   1_556  A
C1813      O2091   1.261       .  A
C1813      C1838   1.449       .  S
C1814      C1903   1.513       .  S
C1815      C1932   1.474       .  S
C1816      O2087   1.267       .  A
C1816      C1858   1.479       .  S
O1817     Co1825   1.972       .  S
O1817      C1830   1.251       .  A
O1818     Co1826   2.030       .  S
O1818      C1831   1.277       .  A
O1819     Co2106   2.012       .  S
O1819      C1832   1.264       .  A
O1820     Co1828   1.977       .  S
O1820      C1833   1.267   1_556  A
O1821     Co1826   2.016       .  S
O1821      C1833   1.273       .  A
O1822     Co1825   1.973       .  S
O1822      C1832   1.263       .  A
O1823     Co2107   2.030       .  S
O1823      C1830   1.265       .  A
O1824     Co1827   1.927       .  S
O1824      C1831   1.253   1_556  A
Co1825     O2108   2.028       .  S
Co1826     O1829   2.042       .  S
Co1827     O2098   1.970       .  S
Co1827     O1829   2.037   1_556  S
Co1828     O2102   1.901       .  S
Co1828     O1829   2.008   1_556  S
O1829     Co2104   1.986   1_554  S
C1830      C1907   1.479       .  S
C1831      C1868   1.467       .  S
C1832      C1936   1.482       .  S
C1833      C1845   1.480       .  S
C1834      C1835   1.404       .  A
C1834      C1839   1.397   1_556  A
C1834      H1840   1.083       .  S
C1835      C2115   1.408   1_556  A
C1836      C2114   1.398       .  A
C1836      C1837   1.383       .  A
C1836      H1841   1.083       .  S
C1837      C1838   1.400       .  A
C1837      H1842   1.085       .  S
C1838      C2118   1.398       .  A
C1839      C2117   1.408       .  A
C1839      H1843   1.084       .  S
C1844      C1845   1.407       .  A
C1844      C1849   1.401       .  A
C1844      H1850   1.083       .  S
C1845      C2125   1.403   1_554  A
C1846      C2124   1.402       .  A
C1846      C1847   1.391       .  A
C1846      H1851   1.083       .  S
C1847      C1848   1.404       .  A
C1847      H1852   1.083       .  S
C1848      C2128   1.401       .  A
C1849      C2127   1.405       .  A
C1849      H1853   1.082       .  S
C1854      C1855   1.402       .  A
C1854      C1859   1.399       .  A
C1854      H1860   1.083       .  S
C1855      C1856   1.407       .  A
C1856      C1857   1.404       .  A
C1856      H1861   1.084       .  S
C1857      C1858   1.403       .  A
C1857      H1862   1.082       .  S
C1858      C1859   1.406       .  A
C1859      H1863   1.084       .  S
C1864      C1865   1.396   1_556  A
C1864      C1869   1.390       .  A
C1864      H1870   1.084       .  S
C1865      C1866   1.410       .  A
C1866      C1867   1.391       .  A
C1866      H1871   1.083       .  S
C1867      C1868   1.397       .  A
C1867      H1872   1.083       .  S
C1868      C1869   1.411   1_554  A
C1869      H1873   1.082       .  S
C1874      C2154   1.404   1_554  A
C1874      C1879   1.395       .  A
C1874      H1880   1.083       .  S
C1875      C2153   1.400       .  A
C1875      C1876   1.395       .  A
C1876      C1877   1.388       .  A
C1876      H1881   1.084       .  S
C1877      C2157   1.402       .  A
C1877      H1882   1.085       .  S
C1878      C2156   1.405   1_554  A
C1878      C1879   1.404       .  A
C1879      H1883   1.083       .  S
C1884      C1885   1.407       .  A
C1884      C2168   1.401       .  A
C1884      H1890   1.084       .  S
C1885      C1886   1.404   1_556  A
C1886      C1887   1.392       .  A
C1886      H1891   1.083       .  S
C1887      C2167   1.405   1_554  A
C1887      H1892   1.083       .  S
C1888      C2166   1.405       .  A
C1888      C1889   1.396       .  A
C1889      C2163   1.392       .  A
C1889      H1893   1.084       .  S
C1894      C1895   1.350       .  D
C1895      H1897   1.086       .  S
C1898      H1900   1.086       .  S
C1898      C1899   1.360       .  D
C1902      H1904   1.087       .  S
C1902      C1903   1.356       .  D
C1903      H1905   1.085       .  S
C1906      H1908   1.087       .  S
C1906      C1907   1.344       .  D
C1907      H1909   1.087       .  S
C1910      C1911   1.217       .  T
C1912      C1913   1.350       .  D
C1913      H1915   1.081       .  S
C1916      C1917   1.351       .  D
C1917      H1919   1.085       .  S
C1920      C1921   1.219       .  T
C1922      H1924   1.086       .  S
C1922      C1923   1.346       .  D
C1923      H1925   1.087       .  S
C1926      H1928   1.088       .  S
C1926      C1927   1.324       .  D
C1930      C1931   1.221       .  T
C1932      H1934   1.086       .  S
C1932      C1933   1.333       .  D
C1933      H1935   1.088       .  S
C1936      H1938   1.086       .  S
C1936      C1937   1.340       .  D
C1937      H1939   1.088       .  S
C1940      C1941   1.212       .  T
C1942      H1944   1.086       .  S
C1942      C1943   1.353       .  D
C1946      C1947   1.324       .  D
C1947      H1949   1.088       .  S
C1950      C1951   1.212       .  T
C1952      C1953   1.216       .  T
C1954      C1960   1.536   1_455  S
C1954      C1958   1.515       .  S
C1954      C2226   1.504       .  S
C1955      H1962   1.086       .  S
C1955      C1956   1.367       .  D
C1956      C1957   1.554       .  S
C1956      C2229   1.457       .  S
C1957      C1959   1.550       .  S
C1957      H1963   1.111       .  S
C1958      H1964   1.086       .  S
C1959      C2221   1.480       .  S
C1960      H1965   1.087       .  S
C1960      C1961   1.367       .  D
C1961      C2231   1.460       .  S
C1966      C1967   1.530       .  S
C1966      C1972   1.535       .  S
C1966      C1970   1.522       .  S
C1966      C2216   1.508       .  S
C1967      H1974   1.086       .  S
C1967      C1968   1.364       .  D
C1968      C1969   1.555       .  S
C1968      C2220   1.457       .  S
C1969      C1973   1.551       .  S
C1969      C1971   1.555       .  S
C1969      H1975   1.111       .  S
C1970      H1976   1.084       .  S
C1970      C1971   1.362       .  D
C1971      C2212   1.490       .  S
C1972      H1977   1.085       .  S
C1972      C1973   1.367       .  D
C1973      C2230   1.458       .  S
C1978      C1984   1.532       .  S
C1978      C1982   1.522       .  S
C1978      C2205   1.507       .  S
C1979      H1986   1.088       .  S
C1979      C1980   1.361       .  D
C1980      C2209   1.442       .  S
C1981      C1985   1.552       .  S
C1981      C1983   1.556       .  S
C1981      H1987   1.111       .  S
C1982      H1988   1.087       .  S
C1982      C1983   1.360       .  D
C1983      C2201   1.491       .  S
C1984      H1989   1.087       .  S
C1984      C1985   1.365       .  D
C1985      C2219   1.458       .  S
C1990      C1996   1.536       .  S
C1990      C1994   1.534       .  S
C1991      H1998   1.087       .  S
C1991      C1992   1.371       .  D
C1992      C2199   1.453       .  S
C1993      C1997   1.535       .  S
C1993      H1999   1.111       .  S
C1994      H2000   1.083       .  S
C1996      H2001   1.087       .  S
C1996      C1997   1.369       .  D
C1997      C2210   1.444       .  S
C2002      C2003   1.529       .  S
C2002      C2008   1.526       .  S
C2002      C2006   1.532       .  S
C2002      C2185   1.505       .  S
C2003      H2010   1.087       .  S
C2003      C2004   1.359       .  D
C2004      C2005   1.554       .  S
C2004      C2189   1.451       .  S
C2005      C2009   1.554       .  S
C2005      C2007   1.563       .  S
C2005      H2011   1.109       .  S
C2006      H2012   1.087       .  S
C2006      C2007   1.367       .  D
C2007      C2181   1.501       .  S
C2008      H2013   1.087       .  S
C2008      C2009   1.360       .  D
C2009      C2200   1.450       .  S
C2014      C2020   1.535       .  S
C2014      C2018   1.538       .  S
C2014      C2173   1.522       .  S
C2015      H2022   1.087       .  S
C2015      C2016   1.359       .  D
C2016      C2190   1.450       .  S
C2017      C2021   1.555       .  S
C2017      C2019   1.549       .  S
C2017      H2023   1.111       .  S
C2018      H2024   1.084       .  S
C2018      C2019   1.373       .  D
C2019      C2177   1.503       .  S
C2020      H2025   1.086       .  S
C2020      C2021   1.363       .  D
C2021      C2232   1.461       .  S
O2026     Co2046   1.965   1_545  S
O2027     Co2047   2.048       .  S
O2027      C2035   1.288       .  A
O2028     Co2048   1.944       .  S
O2028      C2036   1.259       .  A
O2029     Co2049   1.919       .  S
O2029      C2037   1.275       .  A
O2030     Co2047   2.037       .  S
O2030      C2036   1.278       .  A
O2031     Co2046   1.996   1_545  S
O2032     Co2049   1.974       .  S
O2033      C2034   1.266       .  A
C2034      C2206   1.472       .  S
C2035      C2164   1.454       .  S
C2036      C2144   1.472       .  S
C2037      C2178   1.485       .  S
O2038     Co2046   2.010       .  S
O2038      C2051   1.271       .  A
O2039     Co2047   2.021       .  S
O2039      C2052   1.257       .  A
O2041      C2054   1.297       .  A
O2042     Co2047   1.909       .  S
O2042      C2054   1.265       .  A
O2043     Co2046   2.038       .  S
O2043      C2053   1.280       .  A
O2044      C2051   1.250   1_554  A
O2045     Co2048   1.972       .  S
O2045      C2052   1.245       .  A
Co2047     O2050   2.017       .  S
Co2048     O2050   2.076       .  S
C2051      C2134   1.455       .  S
C2052      C2202   1.475       .  S
C2053      C2154   1.474       .  S
C2054      C2174   1.480       .  S
O2055     Co2075   2.028       .  S
O2055      C2063   1.274       .  A
O2056      C2064   1.289       .  A
O2056     Co2076   2.047       .  S
O2057     Co2077   1.985       .  S
O2057      C2065   1.262       .  A
O2058     Co2078   1.950       .  S
O2059      C2065   1.250       .  A
O2059     Co2076   1.962       .  S
O2060     Co2075   2.014       .  S
O2060      C2066   1.277   1_556  A
O2061     Co2078   1.920       .  S
C2063      C2167   1.476       .  S
C2064      C2192   1.462       .  S
C2065      C2222   1.457       .  S
C2066      C2127   1.482       .  S
O2067     Co2075   1.992   1_455  S
O2067      C2080   1.266   1_455  A
O2068      C2081   1.256       .  A
O2068     Co2076   1.933       .  S
O2070      C2083   1.257       .  A
O2071      C2083   1.237       .  A
O2071     Co2076   1.909       .  S
O2072     Co2075   1.972   1_455  S
O2072      C2082   1.268   1_455  A
O2073      C2080   1.265       .  A
O2074     Co2077   2.018       .  S
O2074      C2081   1.276       .  A
Co2076     O2079   2.022       .  S
Co2077     O2079   2.056       .  S
C2080      C2196   1.491   1_655  S
C2081      C2114   1.456       .  S
C2082      C2225   1.470   1_655  S
C2083      C2157   1.439       .  S
O2084     Co2104   1.963   1_554  S
O2084      C2092   1.269       .  A
O2085     Co2105   2.105       .  S
O2085      C2093   1.300       .  A
O2086     Co2106   1.960       .  S
O2086      C2094   1.253       .  A
O2087     Co2107   1.960       .  S
O2088     Co2105   2.000       .  S
O2088      C2094   1.258       .  A
O2089     Co2104   1.859       .  S
O2089      C2095   1.254       .  A
O2090     Co2107   1.914       .  S
O2090      C2093   1.266       .  A
O2091     Co2106   1.942       .  S
C2092      C2117   1.481       .  S
C2093      C2182   1.495       .  S
C2094      C2211   1.469       .  S
C2095      C2137   1.456       .  S
O2096     Co2104   2.084       .  S
O2096      C2109   1.291       .  A
O2097     Co2105   1.971       .  S
O2097      C2110   1.264       .  A
O2098      C2111   1.249       .  A
O2099     Co2107   2.088       .  S
O2099      C2112   1.292       .  A
O2100     Co2105   1.890       .  S
O2100      C2112   1.263       .  A
O2101     Co2104   1.991       .  S
O2101      C2111   1.247       .  A
O2102      C2109   1.268       .  A
O2103     Co2106   2.021       .  S
O2103      C2110   1.277       .  A
Co2105     O2108   2.017       .  S
Co2106     O2108   2.051       .  S
Co2107     O2108   2.027       .  S
C2109      C2186   1.463       .  S
C2110      C2147   1.470       .  S
C2111      C2215   1.468       .  S
C2112      C2124   1.462       .  S
C2113      C2114   1.408       .  A
C2113      C2118   1.394       .  A
C2113      H2119   1.083       .  S
C2115      C2116   1.401       .  A
C2115      H2120   1.084       .  S
C2116      C2117   1.404       .  A
C2116      H2121   1.083       .  S
C2118      H2122   1.083       .  S
C2123      C2124   1.404       .  A
C2123      C2128   1.390       .  A
C2123      H2129   1.083       .  S
C2125      C2126   1.395       .  A
C2125      H2130   1.083       .  S
C2126      C2127   1.407   1_556  A
C2126      H2131   1.083       .  S
C2128      H2132   1.084       .  S
C2133      C2134   1.409   1_554  A
C2133      C2138   1.389       .  A
C2133      H2139   1.083       .  S
C2134      C2135   1.393       .  A
C2135      C2136   1.384       .  A
C2135      H2140   1.083       .  S
C2136      C2137   1.409       .  A
C2136      H2141   1.084       .  S
C2137      C2138   1.396   1_556  A
C2138      H2142   1.083       .  S
C2143      C2144   1.407       .  A
C2143      C2148   1.392       .  A
C2143      H2149   1.083       .  S
C2144      C2145   1.401       .  A
C2145      C2146   1.401       .  A
C2145      H2150   1.083       .  S
C2146      C2147   1.409       .  A
C2146      H2151   1.084       .  S
C2147      C2148   1.398       .  A
C2148      H2152   1.084       .  S
C2153      C2158   1.380       .  A
C2153      H2159   1.084       .  S
C2154      C2155   1.405       .  A
C2155      C2156   1.399       .  A
C2155      H2160   1.083       .  S
C2156      H2161   1.084       .  S
C2157      C2158   1.397       .  A
C2158      H2162   1.082       .  S
C2163      C2164   1.407       .  A
C2163      H2169   1.083       .  S
C2164      C2165   1.396       .  A
C2165      C2166   1.390       .  A
C2165      H2170   1.084       .  S
C2166      H2171   1.084       .  S
C2167      C2168   1.405       .  A
C2168      H2172   1.083       .  S
C2173      C2174   1.345       .  D
C2174      H2176   1.087       .  S
C2177      H2179   1.086       .  S
C2177      C2178   1.352       .  D
C2181      H2183   1.089       .  S
C2181      C2182   1.345       .  D
C2182      H2184   1.087       .  S
C2185      H2187   1.088       .  S
C2185      C2186   1.341       .  D
C2186      H2188   1.086       .  S
C2189      C2190   1.212       .  T
C2191      C2192   1.339       .  D
C2192      H2194   1.079       .  S
C2195      C2196   1.347   1_655  D
C2196      H2198   1.086   1_455  S
C2199      C2200   1.212       .  T
C2201      H2203   1.088       .  S
C2201      C2202   1.359       .  D
C2202      H2204   1.087       .  S
C2205      H2207   1.094       .  S
C2205      C2206   1.335       .  D
C2209      C2210   1.207       .  T
C2211      H2213   1.086       .  S
C2211      C2212   1.354       .  D
C2212      H2214   1.088       .  S
C2215      H2217   1.087       .  S
C2215      C2216   1.344       .  D
C2216      H2218   1.087       .  S
C2219      C2220   1.216       .  T
C2221      H2223   1.086       .  S
C2221      C2222   1.348       .  D
C2225      C2226   1.332       .  D
C2226      H2228   1.088       .  S
C2229      C2230   1.216       .  T
C2231      C2232   1.218       .  T
