geometry optimzed in LAMMPS
_audit_creation_date              2020-11-30 
_audit_creation_method            'lammps2cif' 
_symmetry_space_group_name_H-M    'P1' 
_symmetry_Int_Tables_number       1 
_symmetry_cell_setting            triclinic 
loop_ 
_symmetry_equiv_pos_as_xyz 
  x,y,z 
_cell_length_a                    66.90596395 
_cell_length_b                    35.14320603971818 
_cell_length_c                    35.56765396465226 
_cell_angle_alpha                 90.82796487919799 
_cell_angle_beta                  90.63459000978528 
_cell_angle_gamma                 90.66709053234348 
loop_ 
_atom_site_label 
_atom_site_type_symbol 
_atom_site_fract_x 
_atom_site_fract_y 
_atom_site_fract_z 
_atom_site_charge 
C1          C  0.13081460  0.49689516  0.20953994     0.88100
C2          C  0.14419446  0.46192605  0.21136188    -0.52200
C3          C  0.15614826  0.46076232  0.24276458     0.11000
C4          C  0.14428629  0.98372056  0.26782402     0.21900
C5          C  0.11047282  0.98724125  0.24184608    -0.52900
C6          C  0.13121699  0.49599080  0.27840545     0.11100
C7          C  0.13795568  0.01743595  0.20948840    -0.52400
C8          C  0.14920702  0.01750347  0.24191563     0.11700
H9          H  0.14400880  0.43983630  0.18969227     0.16200
H10         H  0.15328535  0.98321078  0.29419024     0.01900
H11         H  0.09422158  0.98926398  0.24168559     0.16500
H12         H  0.13938065  0.03902042  0.18811156     0.16300
C13         C  0.47221235  0.45625538  0.24383479     0.03900
C14         C  0.45115602  0.45505147  0.24515088     0.03800
C15         C  0.44154799  0.99058403  0.24946945    -0.16700
C16         C  0.45136310  0.02585000  0.25228772     0.03900
C17         C  0.47237281  0.02736239  0.25515015     0.03800
C18         C  0.48326581  0.99364664  0.25510970    -0.16700
H19         H  0.49945506  0.99483795  0.25729007     0.05900
H20         H  0.42535490  0.98935700  0.24746034     0.05900
N21         N  0.39244443  0.31704182  0.25816112    -0.25700
N22         N  0.40911448  0.29764576  0.26242517    -0.33600
C23         C  0.42493061  0.32144712  0.26111198     0.02600
C24         C  0.41791590  0.35760964  0.25578312     0.08600
C25         C  0.39729204  0.35408341  0.25401512    -0.04500
H26         H  0.44037970  0.31285726  0.26317810     0.09300
H27         H  0.38665217  0.37657548  0.24958081     0.10500
Cu28       Cu  0.40999591  0.23953786  0.26681505     0.44200
Cu29       Cu  0.36420048  0.29081202  0.25721191     0.42000
Cu30       Cu  0.36401150  0.18614385  0.25699056     0.43900
N31         N  0.40885577  0.18127433  0.26242960    -0.33100
N32         N  0.39212982  0.16119080  0.25812981    -0.27400
C33         C  0.39680951  0.12414403  0.25450396    -0.03500
C34         C  0.41738597  0.12133980  0.25661690     0.08800
C35         C  0.42456516  0.15788087  0.26164615     0.02600
H36         H  0.38607835  0.10113661  0.25047699     0.10200
H37         H  0.44004281  0.16694267  0.26417095     0.09300
N38         N  0.33827398  0.21908259  0.25784015    -0.34600
N39         N  0.33832188  0.25677406  0.25795192    -0.26700
C40         C  0.31928856  0.26880432  0.25931878    -0.02000
C41         C  0.30665661  0.23729692  0.26015297     0.06600
C42         C  0.31922907  0.20628733  0.25912740     0.04700
H43         H  0.31498272  0.29837740  0.25992153     0.09800
H44         H  0.31488339  0.17655283  0.25956092     0.08700
N45         N  0.53022697  0.16613922  0.25876667    -0.25700
N46         N  0.51402733  0.18585438  0.26642724    -0.33600
C47         C  0.49828398  0.16201470  0.26884947     0.02600
C48         C  0.50498251  0.12566317  0.26250253     0.08600
C49         C  0.52523115  0.12901154  0.25616946    -0.04500
H50         H  0.48306377  0.17068100  0.27385684     0.09300
H51         H  0.53547330  0.10637953  0.24941483     0.10500
Cu52       Cu  0.51354460  0.24422386  0.26985107     0.44200
Cu53       Cu  0.55797359  0.19127855  0.25067163     0.42000
Cu54       Cu  0.55887082  0.29541129  0.24989931     0.43900
N55         N  0.51479379  0.30212603  0.26301700    -0.33100
N56         N  0.53128044  0.32125971  0.25489776    -0.27400
C57         C  0.52661045  0.35794159  0.24941030    -0.03500
C58         C  0.50626530  0.36154693  0.25439588     0.08800
C59         C  0.49922431  0.32584949  0.26297678     0.02600
H60         H  0.53713549  0.38000428  0.24166198     0.10200
H61         H  0.48386692  0.31743883  0.26782489     0.09300
N62         N  0.58403717  0.26178575  0.24531475    -0.34600
N63         N  0.58365978  0.22412974  0.24511678    -0.26700
C64         C  0.60240683  0.21136311  0.24146182    -0.02000
C65         C  0.61517051  0.24245048  0.23937822     0.06600
C66         C  0.60305812  0.27394187  0.24194964     0.04700
H67         H  0.60641554  0.18163199  0.24063021     0.09800
H68         H  0.60767958  0.30352488  0.24134651     0.08700
N69         N  0.19841340  0.15836866  0.25793275    -0.25700
N70         N  0.18224244  0.17902220  0.25281237    -0.33600
C71         C  0.16631884  0.15582206  0.24806295     0.02600
C72         C  0.17251790  0.11861456  0.25052155     0.08600
C73         C  0.19303969  0.12111692  0.25683990    -0.04500
H74         H  0.15129875  0.16538421  0.24218614     0.09300
H75         H  0.20336571  0.09776188  0.25868924     0.10500
Cu76       Cu  0.18211567  0.23792898  0.25063076     0.44200
Cu77       Cu  0.22685732  0.18374645  0.26264871     0.42000
Cu78       Cu  0.22772691  0.28998261  0.26294433     0.43900
N79         N  0.18352433  0.29688603  0.25131156    -0.33100
N80         N  0.20019782  0.31675733  0.25700100    -0.27400
C81         C  0.19593537  0.35421790  0.25577314    -0.03500
C82         C  0.17558500  0.35776385  0.24870789     0.08800
C83         C  0.16831501  0.32086973  0.24593002     0.02600
H84         H  0.20690674  0.37698682  0.25839101     0.10200
H85         H  0.15304931  0.31205248  0.23988566     0.09300
N86         N  0.25301125  0.25562488  0.26363260    -0.34600
N87         N  0.25279807  0.21789010  0.26343035    -0.26700
C88         C  0.27181362  0.20560966  0.26251064    -0.02000
C89         C  0.28457102  0.23695603  0.26204476     0.06600
C90         C  0.27211186  0.26810107  0.26284195     0.04700
H91         H  0.27602028  0.17597995  0.26170855     0.09800
H92         H  0.27657186  0.29777509  0.26232714     0.08700
N93         N  0.72370666  0.31469411  0.23915152    -0.25700
N94         N  0.74004721  0.29395743  0.24181940    -0.33600
C95         C  0.75572268  0.31753824  0.24882662     0.02600
C96         C  0.74903049  0.35477370  0.25036473     0.08600
C97         C  0.72860280  0.35183408  0.24405682    -0.04500
H98         H  0.77089353  0.30820863  0.25345587     0.09300
H99         H  0.71793616  0.37472319  0.24475402     0.10500
Cu100      Cu  0.74033934  0.23393163  0.23755683     0.44200
Cu101      Cu  0.69520545  0.29118311  0.23301559     0.42000
Cu102      Cu  0.69266125  0.18763925  0.22458253     0.43900
N103        N  0.73672886  0.17435002  0.23158219    -0.33100
N104        N  0.71909128  0.15787534  0.22559125    -0.27400
C105        C  0.72127937  0.11988912  0.22293716    -0.03500
C106        C  0.74124803  0.11158861  0.22793621     0.08800
C107        C  0.75064560  0.14689914  0.23334018     0.02600
H108        H  0.70908498  0.09966649  0.21905479     0.10200
H109        H  0.76640870  0.15224883  0.23839794     0.09300
N110        N  0.66797351  0.22206930  0.22924376    -0.34600
N111        N  0.66875501  0.25962606  0.23210210    -0.26700
C112        C  0.65006273  0.27277216  0.23584631    -0.02000
C113        C  0.63699333  0.24196690  0.23540591     0.06600
C114        C  0.64884297  0.21032390  0.23119741     0.04700
H115        H  0.64633115  0.30248318  0.23925465     0.09800
H116        H  0.64399051  0.18085469  0.23002961     0.08700
C117        C  0.80059698  0.98811449  0.28470319     0.88100
C118        C  0.78084122  0.45514912  0.30140138    -0.52200
C119        C  0.76902697  0.45754582  0.26990654     0.11000
C120        C  0.77622308  0.99431519  0.22729792     0.21900
C121        C  0.81114716  0.98804363  0.24652745    -0.52900
C122        C  0.79845967  0.99155603  0.21607503     0.11100
C123        C  0.78862947  0.02475942  0.28511056    -0.52400
C124        C  0.77597141  0.02874750  0.25526696     0.11700
H125        H  0.78004935  0.43146251  0.32062835     0.16200
H126        H  0.76589482  0.99696579  0.20285186     0.01900
H127        H  0.82720595  0.98530955  0.24448419     0.16500
H128        H  0.79086622  0.04691373  0.30644461     0.16300
N129        N  0.08517978  0.49453055  0.06697205    -0.25700
N130        N  0.10128506  0.49716028  0.04584334    -0.33600
C131        C  0.11757497  0.49868165  0.06853481     0.02600
C132        C  0.11145031  0.49704026  0.10561636     0.08600
C133        C  0.09078299  0.49438207  0.10343036    -0.04500
H134        H  0.13280025  0.50081982  0.05877467     0.09300
H135        H  0.08046019  0.49231372  0.12650304     0.10500
Cu136      Cu  0.09688332  0.50328381  0.48615669     0.44200
Cu137      Cu  0.05600689  0.49125537  0.04621237     0.42000
Cu138      Cu  0.04820760  0.49662298  0.44217799     0.43900
N139        N  0.09271426  0.49990504  0.42777907    -0.33100
N140        N  0.07469126  0.49743430  0.41223888    -0.27400
C141        C  0.07643172  0.49567974  0.37467548    -0.03500
C142        C  0.09646782  0.49704273  0.36573364     0.08800
C143        C  0.10646027  0.49976017  0.40018798     0.02600
H144        H  0.06393720  0.49356073  0.35514811     0.10200
H145        H  0.12244099  0.50151737  0.40492446     0.09300
N146        N  0.02320973  0.49714487  0.47628900    -0.34600
N147        N  0.02804379  0.48953255  0.02006426    -0.26700
C148        C  0.00992511  0.48819530  0.03617408    -0.02000
C149        C  0.99227538  0.49713357  0.49731657     0.06600
C150        C  0.00386279  0.49525417  0.46547928     0.04700
H151        H  0.00742423  0.48763334  0.06616297     0.09800
H152        H  0.99866204  0.49299036  0.43660846     0.08700
N153        N  0.84662130  0.98901538  0.42676961    -0.25700
N154        N  0.83035223  0.98713247  0.44756753    -0.33600
C155        C  0.81422644  0.98561568  0.42457445     0.02600
C156        C  0.82059567  0.98644835  0.38768876     0.08600
C157        C  0.84124688  0.98872639  0.39016745    -0.04500
H158        H  0.79892423  0.98416260  0.43402758     0.09900
H159        H  0.85167649  0.99033729  0.36721857     0.10500
Cu160      Cu  0.83039348  0.98718474  0.50645339     0.44200
Cu161      Cu  0.87564394  0.99171507  0.44813309     0.42000
Cu162      Cu  0.87868542  0.99854526  0.04758356     0.43900
N163        N  0.83416283  0.99752110  0.06427141    -0.33100
N164        N  0.85247781  0.99790467  0.07873496    -0.27400
C165        C  0.85136157  0.99736979  0.11641251    -0.03500
C166        C  0.83147984  0.99648770  0.12653184     0.08800
C167        C  0.82090269  0.99662201  0.09267793     0.02600
H168        H  0.86418524  0.99739456  0.13522652     0.10200
H169        H  0.80483847  0.99607157  0.08888443     0.09300
N170        N  0.90317617  0.99874950  0.01187365    -0.34600
N171        N  0.90291221  0.99296944  0.47665516    -0.26700
C172        C  0.92144403  0.99383133  0.46221991    -0.02000
C173        C  0.93503111  0.99489842  0.49177579     0.06600
C174        C  0.92276352  0.99828088  0.02110935     0.04700
H175        H  0.92473771  0.99408636  0.43250757     0.09800
H176        H  0.92861362  0.99771284  0.04957211     0.08700
C177        C  0.97449437  0.00072595  0.48905632    -0.11700
C178        C  0.95649798  0.99762266  0.48972393    -0.13300
C179        C  0.80755885  0.98621938  0.35377144    -0.14900
C180        C  0.81456932  0.98534763  0.31839066    -0.30000
H181        H  0.79152147  0.98750585  0.35804162     0.14200
H182        H  0.82561430  0.48238239  0.33628241     0.14700
C183        C  0.82436589  0.99538566  0.16587533    -0.14900
C184        C  0.80500851  0.99291814  0.17592711    -0.30000
H185        H  0.83384281  0.48900381  0.21071433     0.14200
H186        H  0.79347301  0.99229565  0.15422790     0.14700
C187        C  0.74997230  0.07284008  0.22958887    -0.14900
C188        C  0.76681937  0.06664739  0.24918750    -0.30000
H189        H  0.74170725  0.04898067  0.21710657     0.14200
H190        H  0.77388294  0.09068132  0.26386446     0.14700
C191        C  0.76131729  0.38873319  0.26132646    -0.14900
C192        C  0.75571770  0.42531839  0.25694670    -0.30000
H193        H  0.77600287  0.38304489  0.27314296     0.14200
H194        H  0.74188713  0.43169617  0.24223591     0.14700
C195        C  0.43948654  0.05978271  0.25291504    -0.11700
C196        C  0.42917391  0.08760803  0.25418324    -0.13300
C197        C  0.44005847  0.41981165  0.24861636    -0.11700
C198        C  0.42989109  0.39149450  0.25176365    -0.13300
C199        C  0.49302616  0.09167905  0.26042833    -0.11700
C200        C  0.48318408  0.06288705  0.25818117    -0.13300
C201        C  0.48402191  0.42240926  0.24669885    -0.11700
C202        C  0.49442057  0.39490252  0.24988413    -0.13300
C203        C  0.10425275  0.49582191  0.32683424    -0.14900
C204        C  0.12380454  0.49680450  0.31802664    -0.30000
H205        H  0.09301130  0.49387697  0.30475220     0.14200
H206        H  0.09538237  0.97957605  0.30964561     0.14700
C207        C  0.12455192  0.49753891  0.13964446    -0.14900
C208        C  0.11733331  0.49741913  0.17490608    -0.30000
H209        H  0.14062537  0.49787272  0.13562674     0.14200
H210        H  0.09369482  0.98781050  0.17507740     0.14700
C211        C  0.15948814  0.08511015  0.24244035    -0.14900
C212        C  0.16348575  0.04902954  0.25213411    -0.30000
H213        H  0.14532485  0.09105306  0.22860189     0.14200
H214        H  0.17664000  0.04288203  0.26903237     0.14700
C215        C  0.16921259  0.42785761  0.25141022    -0.14900
C216        C  0.16362589  0.39210481  0.24151454    -0.30000
H217        H  0.18287789  0.43287708  0.26755064     0.14200
H218        H  0.14907313  0.38726789  0.22835080     0.14700
C219        C  0.12619684  0.50381454  0.70790450     0.88100
C220        C  0.13822101  0.46714300  0.70790243    -0.52200
C221        C  0.15090221  0.46354262  0.73786813     0.11000
C222        C  0.14716976  0.99997746  0.76603676     0.21900
C223        C  0.11375321  0.01130322  0.74085104    -0.52900
C224        C  0.12847729  0.50141361  0.77656066     0.11100
C225        C  0.14230034  0.04064830  0.71159736    -0.52400
C226        C  0.15327556  0.03614080  0.74390429     0.11700
H227        H  0.13594356  0.44469302  0.68689926     0.16200
H228        H  0.15609682  0.99576178  0.79207016     0.01900
H229        H  0.09769178  0.01570466  0.74098134     0.16500
H230        H  0.14429725  0.06465591  0.69305560     0.16300
C231        C  0.47395959  0.46191341  0.72311153     0.03900
C232        C  0.45292939  0.45922875  0.72453537     0.03800
C233        C  0.44359938  0.99340566  0.75726464    -0.16700
C234        C  0.45313100  0.02907575  0.75673580     0.03900
C235        C  0.47418563  0.03138897  0.75599199     0.03800
C236        C  0.48533201  0.99795678  0.75618109    -0.16700
H237        H  0.50153276  0.99966522  0.75556110     0.05900
H238        H  0.42739909  0.99167568  0.75774802     0.05900
N239        N  0.39611701  0.32093846  0.74902240    -0.25700
N240        N  0.41279632  0.30116014  0.74980063    -0.33600
C241        C  0.42846828  0.32442405  0.74371043     0.02600
C242        C  0.42128837  0.36057247  0.73880980     0.08600
C243        C  0.40076297  0.35760530  0.74233175    -0.04500
H244        H  0.44390668  0.31562148  0.74308753     0.09300
H245        H  0.39004855  0.38034695  0.74050628     0.10500
Cu246      Cu  0.41350798  0.24350969  0.75846111     0.44200
Cu247      Cu  0.36814815  0.29611009  0.75791286     0.42000
Cu248      Cu  0.36722517  0.19254267  0.77287592     0.43900
N249        N  0.41160655  0.18532009  0.76239384    -0.33100
N250        N  0.39479496  0.16602716  0.76756700    -0.27400
C251        C  0.39891755  0.12856225  0.76734937    -0.03500
C252        C  0.41922406  0.12468212  0.76170348     0.08800
C253        C  0.42679590  0.16100486  0.75870832     0.02600
H254        H  0.38797116  0.10599320  0.77068269     0.10200
H255        H  0.44217351  0.16925345  0.75383344     0.09300
N256        N  0.34199869  0.22686669  0.77342294    -0.34600
N257        N  0.34237635  0.26408207  0.76804651    -0.26700
C258        C  0.32356651  0.27717401  0.76935702    -0.02000
C259        C  0.31071678  0.24683843  0.77566105     0.06600
C260        C  0.32291133  0.21540770  0.77811016     0.04700
H261        H  0.31953468  0.30657784  0.76539124     0.09800
H262        H  0.31826098  0.18626463  0.78264810     0.08700
N263        N  0.53216150  0.17074237  0.74778188    -0.25700
N264        N  0.51550438  0.19056256  0.74602269    -0.33600
C265        C  0.49965680  0.16681360  0.74744767     0.02600
C266        C  0.50666220  0.13029831  0.75026869     0.08600
C267        C  0.52729436  0.13355701  0.75039143    -0.04500
H268        H  0.48421045  0.17558497  0.74660850     0.09300
H269        H  0.53794794  0.11072364  0.75234717     0.10500
Cu270      Cu  0.51481985  0.24888217  0.74211448     0.44200
Cu271      Cu  0.56049703  0.19622938  0.74685792     0.42000
Cu272      Cu  0.56122730  0.30105250  0.74382931     0.43900
N273        N  0.51649355  0.30717512  0.73825634    -0.33100
N274        N  0.53342447  0.32696961  0.73909957    -0.27400
C275        C  0.52914778  0.36418295  0.73571609    -0.03500
C276        C  0.50859480  0.36741500  0.73259406     0.08800
C277        C  0.50105910  0.33091535  0.73432299     0.02600
H278        H  0.54013530  0.38700827  0.73541495     0.10200
H279        H  0.48550858  0.32215133  0.73279489     0.09300
N280        N  0.58670303  0.26734915  0.74504901    -0.34600
N281        N  0.58648822  0.22966937  0.74567383    -0.26700
C282        C  0.60546711  0.21726012  0.74493746    -0.02000
C283        C  0.61821881  0.24853671  0.74383427     0.06600
C284        C  0.60580043  0.27976313  0.74401732     0.04700
H285        H  0.60964748  0.18761768  0.74497859     0.09800
H286        H  0.61028329  0.30940111  0.74296961     0.08700
N287        N  0.20102008  0.17695599  0.77403554    -0.25700
N288        N  0.18491839  0.19814665  0.76984257    -0.33600
C289        C  0.16901073  0.17493693  0.76388466     0.02600
C290        C  0.17520621  0.13742365  0.76447055     0.08600
C291        C  0.19566019  0.13978503  0.77102718    -0.04500
H292        H  0.15401905  0.18469218  0.75813206     0.09300
H293        H  0.20603233  0.11640947  0.77159783     0.10500
Cu294      Cu  0.18491545  0.25820222  0.76969649     0.44200
Cu295      Cu  0.22986472  0.19992217  0.77959496     0.42000
Cu296      Cu  0.23286189  0.30361732  0.77992110     0.43900
N297        N  0.18883508  0.31787231  0.77099025    -0.33100
N298        N  0.20658622  0.33416331  0.77615410    -0.27400
C299        C  0.20466055  0.37228348  0.77615621    -0.03500
C300        C  0.18477778  0.38081526  0.77009719     0.08800
C301        C  0.17513461  0.34551371  0.76695490     0.02600
H302        H  0.21697663  0.39237151  0.77907757     0.10200
H303        H  0.15934302  0.34032122  0.76209078     0.09300
N304        N  0.25761466  0.26858220  0.77978798    -0.34600
N305        N  0.25669585  0.23095689  0.78017827    -0.26700
C306        C  0.27544333  0.21734707  0.77930666    -0.02000
C307        C  0.28872002  0.24786710  0.77809692     0.06600
C308        C  0.27687277  0.27983894  0.77840965     0.04700
H309        H  0.27910318  0.18744283  0.77880734     0.09800
H310        H  0.28184548  0.30920575  0.77738456     0.08700
N311        N  0.72521138  0.32996626  0.74887381    -0.25700
N312        N  0.74172840  0.30976378  0.75001521    -0.33600
C313        C  0.75742783  0.33306002  0.75662648     0.02600
C314        C  0.75065530  0.36990099  0.75950370     0.08600
C315        C  0.73007266  0.36708654  0.75441975    -0.04500
H316        H  0.77269079  0.32370956  0.75994046     0.09300
H317        H  0.71940523  0.38992111  0.75619309     0.10500
Cu318      Cu  0.74243006  0.25115658  0.74455538     0.44200
Cu319      Cu  0.69727542  0.30341907  0.74309698     0.42000
Cu320      Cu  0.69738150  0.19654572  0.73727651     0.43900
N321        N  0.74203718  0.19239298  0.74096746    -0.33100
N322        N  0.72557183  0.17139561  0.73796611    -0.27400
C323        C  0.73065264  0.13427398  0.73854679    -0.03500
C324        C  0.75131847  0.13224914  0.74234434     0.08800
C325        C  0.75790771  0.16958979  0.74380614     0.02600
H326        H  0.72008247  0.11074320  0.73826113     0.10200
H327        H  0.77314255  0.17953852  0.74805935     0.09300
N328        N  0.67188027  0.23047820  0.73952714    -0.34600
N329        N  0.67190958  0.26820791  0.74119402    -0.26700
C330        C  0.65289576  0.28020103  0.74274597    -0.02000
C331        C  0.64027211  0.24874513  0.74218485     0.06600
C332        C  0.65280853  0.21773339  0.74012248     0.04700
H333        H  0.64861038  0.30975138  0.74460016     0.09800
H334        H  0.64841596  0.18800814  0.73929857     0.08700
C335        C  0.79887596  0.99700005  0.78372028     0.88100
C336        C  0.78554955  0.46820848  0.80607691    -0.52200
C337        C  0.77308169  0.47044968  0.77550302     0.11000
C338        C  0.77555478  0.99573633  0.72440907     0.21900
C339        C  0.81019001  0.99626878  0.74632633    -0.52900
C340        C  0.79803696  0.99553678  0.71490310     0.11100
C341        C  0.78521918  0.03154666  0.78102782    -0.52400
C342        C  0.77299344  0.03118848  0.74992154     0.11700
H343        H  0.78440786  0.44575212  0.82663960     0.16200
H344        H  0.76557170  0.99516798  0.69922819     0.01900
H345        H  0.82636116  0.99596908  0.74550995     0.16500
H346        H  0.78527918  0.05427813  0.80203776     0.16300
N347        N  0.08007213  0.50674509  0.56551471    -0.25700
N348        N  0.09646465  0.50608663  0.54499017    -0.33600
C349        C  0.11249411  0.50655160  0.56819636     0.02600
C350        C  0.10599477  0.50752991  0.60498789     0.08600
C351        C  0.08530764  0.50770298  0.60223898    -0.04500
H352        H  0.12783389  0.50559839  0.55894450     0.09300
H353        H  0.07477548  0.50776843  0.62508526     0.10500
Cu354      Cu  0.10026056  0.49851317  0.98693300     0.44200
Cu355      Cu  0.05117606  0.50442970  0.54314974     0.42000
Cu356      Cu  0.04968082  0.49295683  0.94663540     0.43900
N357        N  0.09398428  0.49877279  0.92906606    -0.33100
N358        N  0.07557312  0.49669863  0.91510631    -0.27400
C359        C  0.07632751  0.49717883  0.87740739    -0.03500
C360        C  0.09607000  0.49958619  0.86673531     0.08800
C361        C  0.10694983  0.50060215  0.90025430     0.02600
H362        H  0.06335965  0.49566353  0.85897284     0.10200
H363        H  0.12302338  0.50237789  0.90355526     0.09300
N364        N  0.02569113  0.49020880  0.98312668    -0.34600
N365        N  0.02426283  0.50011550  0.51338238    -0.26700
C366        C  0.00559928  0.50016644  0.52718070    -0.02000
C367        C  0.99556053  0.48801350  0.00795061     0.06600
C368        C  0.00601064  0.48933034  0.97468327     0.04700
H369        H  0.00202060  0.50251121  0.55671133     0.09800
H370        H  0.99980410  0.48983245  0.94647646     0.08700
N371        N  0.84444167  0.99924257  0.92644244    -0.25700
N372        N  0.82819036  0.99869741  0.94734727    -0.33600
C373        C  0.81199542  0.99831572  0.92445241     0.02600
C374        C  0.81830121  0.99859602  0.88747709     0.08600
C375        C  0.83899455  0.99920770  0.88988478    -0.04500
H376        H  0.79670102  0.99772691  0.93401771     0.09900
H377        H  0.84943278  0.99949458  0.86689641     0.10500
Cu378      Cu  0.82860188  0.99812229  0.00623111     0.44200
Cu379      Cu  0.87359174  0.99957407  0.94759776     0.42000
Cu380      Cu  0.87964505  0.99303211  0.54868717     0.43900
N381        N  0.83530920  0.98962379  0.56467219    -0.33100
N382        N  0.85348907  0.99193388  0.57956705    -0.27400
C383        C  0.85213400  0.99374801  0.61719975    -0.03500
C384        C  0.83218948  0.99258927  0.62683423     0.08800
C385        C  0.82185589  0.98990973  0.59274646     0.02600
H386        H  0.86481718  0.99598090  0.63627568     0.10200
H387        H  0.80582806  0.98852398  0.58856121     0.09300
N388        N  0.90430792  0.99345494  0.51377519    -0.34600
N389        N  0.90129137  0.99918039  0.97483379    -0.26700
C390        C  0.91962372  0.99901173  0.95947944    -0.02000
C391        C  0.93365890  0.99845458  0.98829022     0.06600
C392        C  0.92373177  0.99466077  0.52400159     0.04700
H393        H  0.92249077  0.99912609  0.92960608     0.09800
H394        H  0.92918563  0.99571188  0.55275876     0.08700
C395        C  0.97324059  0.99663651  0.98331284    -0.11700
C396        C  0.95517734  0.99762770  0.98494974    -0.13300
C397        C  0.80527332  0.99807935  0.85341519    -0.14900
C398        C  0.81248202  0.99769013  0.81816930    -0.30000
H399        H  0.78919655  0.99788220  0.85741613     0.14200
H400        H  0.83163707  0.49177841  0.83724290     0.14700
C401        C  0.82472483  0.99440768  0.66592852    -0.14900
C402        C  0.80522711  0.99384666  0.67517402    -0.30000
H403        H  0.83732744  0.49638401  0.70917010     0.14200
H404        H  0.79398611  0.99204326  0.65297019     0.14700
C405        C  0.76420721  0.09911774  0.74926110    -0.14900
C406        C  0.75912586  0.06276080  0.74103670    -0.30000
H407        H  0.77896932  0.10536793  0.76097572     0.14200
H408        H  0.74518579  0.05621080  0.72629497     0.14700
C409        C  0.76343660  0.40300900  0.76991693    -0.14900
C410        C  0.75848696  0.43966066  0.76516301    -0.30000
H411        H  0.77825269  0.39648898  0.78068265     0.14200
H412        H  0.74456318  0.44686746  0.75118005     0.14700
C413        C  0.44093082  0.06260457  0.75763596    -0.11700
C414        C  0.43054458  0.09033607  0.75926133    -0.13300
C415        C  0.44259724  0.42324700  0.72849682    -0.11700
C416        C  0.43297336  0.39443905  0.73274574    -0.13300
C417        C  0.49475027  0.09612797  0.75273556    -0.11700
C418        C  0.48484293  0.06731818  0.75451402    -0.13300
C419        C  0.48645470  0.42877132  0.72569562    -0.11700
C420        C  0.49702594  0.40136297  0.72859170    -0.13300
C421        C  0.10283375  0.50030443  0.82723037    -0.14900
C422        C  0.12213120  0.50124590  0.81677862    -0.30000
H423        H  0.09104867  0.49941196  0.80613628     0.14200
H424        H  0.09881599  0.01698043  0.80839111     0.14700
C425        C  0.11902241  0.50651088  0.63891825    -0.14900
C426        C  0.11210226  0.50666411  0.67434663    -0.30000
H427        H  0.13504284  0.50492954  0.63455244     0.14200
H428        H  0.09697121  0.01997827  0.67522095     0.14700
C429        C  0.16239566  0.10398367  0.75404855    -0.14900
C430        C  0.16715249  0.06692552  0.75839403    -0.30000
H431        H  0.14790124  0.11069914  0.74195515     0.14200
H432        H  0.18073714  0.05924778  0.77325608     0.14700
C433        C  0.15999106  0.42564294  0.74493921    -0.14900
C434        C  0.17631300  0.41965106  0.76623187    -0.30000
H435        H  0.15319620  0.40134219  0.73024433     0.14200
H436        H  0.18437068  0.44369256  0.77883373     0.14700
C437        C  0.12276027  0.98460331  0.20629643     0.88100
C438        C  0.13486129  0.94832362  0.21067095    -0.52200
C439        C  0.14618863  0.94750731  0.24275613     0.11000
C440        C  0.15373125  0.49550198  0.26935123     0.21900
C441        C  0.11926886  0.49663528  0.24672934    -0.52900
C442        C  0.12147808  0.98682684  0.27405838     0.11100
C443        C  0.14501585  0.53129307  0.21340166    -0.52400
C444        C  0.15694354  0.53091905  0.24490540     0.11700
H445        H  0.13395158  0.92465833  0.19073305     0.16200
H446        H  0.16353322  0.49494051  0.29475550     0.01900
H447        H  0.10309955  0.49744288  0.24724802     0.16500
H448        H  0.14524657  0.55429196  0.19334192     0.16300
C449        C  0.47343193  0.95840638  0.25244690     0.03900
C450        C  0.45243547  0.95686944  0.24961082     0.03800
C451        C  0.44046195  0.48898063  0.24369568    -0.16700
C452        C  0.45045964  0.52401282  0.24102506     0.03900
C453        C  0.47148735  0.52515669  0.23918081     0.03800
C454        C  0.48219306  0.49125257  0.24060921    -0.16700
H455        H  0.49839918  0.49214287  0.23962924     0.05900
H456        H  0.42426768  0.48815956  0.24511655     0.05900
N457        N  0.39527598  0.81735995  0.25475009    -0.25700
N458        N  0.41100027  0.79781971  0.24382632    -0.33600
C459        C  0.42644590  0.82182330  0.23846815     0.02600
C460        C  0.42004011  0.85810493  0.24636620     0.08600
C461        C  0.40028727  0.85451213  0.25662537    -0.04500
H462        H  0.44131484  0.81331809  0.23044567     0.09300
H463        H  0.39043170  0.87700756  0.26558130     0.10500
Cu464      Cu  0.41122958  0.73943611  0.23985652     0.44200
Cu465      Cu  0.36817374  0.79198527  0.26812884     0.42000
Cu466      Cu  0.36670013  0.68837372  0.26909643     0.43900
N467        N  0.40948636  0.68121317  0.24386436    -0.33100
N468        N  0.39349350  0.66219278  0.25506623    -0.27400
C469        C  0.39785175  0.62488236  0.25588395    -0.03500
C470        C  0.41742288  0.62073694  0.24462645     0.08800
C471        C  0.42437504  0.65679984  0.23729528     0.02600
H472        H  0.38763684  0.60261920  0.26442727     0.10200
H473        H  0.43924095  0.66487844  0.22846992     0.09300
N474        N  0.34191580  0.72247482  0.27895298    -0.34600
N475        N  0.34258565  0.76011321  0.27864022    -0.26700
C476        C  0.32407767  0.77357645  0.28395879    -0.02000
C477        C  0.31106379  0.74303285  0.28765171     0.06600
C478        C  0.32288642  0.71105781  0.28443068     0.04700
H479        H  0.32030319  0.80342625  0.28388827     0.09800
H480        H  0.31795131  0.68164839  0.28492584     0.08700
N481        N  0.52918577  0.66507540  0.23308296    -0.25700
N482        N  0.51246742  0.68455694  0.23588621    -0.33600
C483        C  0.49677543  0.66037726  0.23622564     0.02600
C484        C  0.50397092  0.62393854  0.23352396     0.08600
C485        C  0.52453264  0.62767693  0.23161082    -0.04500
H486        H  0.48133711  0.66876454  0.23889851     0.09300
H487        H  0.53529913  0.60500743  0.22982346     0.10500
Cu488      Cu  0.51166782  0.74285419  0.24069918     0.44200
Cu489      Cu  0.55733378  0.69120826  0.23225984     0.42000
Cu490      Cu  0.55838650  0.79529213  0.23821998     0.43900
N491        N  0.51376591  0.80107739  0.24593195    -0.33100
N492        N  0.53075985  0.82062085  0.24496794    -0.27400
C493        C  0.52672409  0.85795710  0.24800604    -0.03500
C494        C  0.50628145  0.86159679  0.25101796     0.08800
C495        C  0.49849113  0.82522237  0.24960103     0.02600
H496        H  0.53778242  0.88063836  0.24729915     0.10200
H497        H  0.48288133  0.81687042  0.25034844     0.09300
N498        N  0.58369681  0.76215839  0.23256972    -0.34600
N499        N  0.58334745  0.72450524  0.23091478    -0.26700
C500        C  0.60222343  0.71203886  0.22811410    -0.02000
C501        C  0.61503853  0.74327350  0.22787779     0.06600
C502        C  0.60277478  0.77456641  0.23071270     0.04700
H503        H  0.60629480  0.68237044  0.22640329     0.09800
H504        H  0.60735612  0.80419215  0.23164658     0.08700
N505        N  0.20221212  0.67255257  0.27720015    -0.25700
N506        N  0.18597564  0.69327102  0.27319199    -0.33600
C507        C  0.17042983  0.67017181  0.26424977     0.02600
C508        C  0.17708251  0.63308469  0.26276134     0.08600
C509        C  0.19734712  0.63557635  0.27121031    -0.04500
H510        H  0.15542785  0.67978028  0.25836075     0.09300
H511        H  0.20793243  0.61254827  0.27137317     0.10500
Cu512      Cu  0.18580557  0.75232392  0.27773341     0.44200
Cu513      Cu  0.23043760  0.69668104  0.28673590     0.42000
Cu514      Cu  0.23325645  0.80088576  0.29169538     0.43900
N515        N  0.18894449  0.81119419  0.28152401    -0.33100
N516        N  0.20620455  0.82920538  0.28712036    -0.27400
C517        C  0.20309303  0.86704857  0.28676537    -0.03500
C518        C  0.18295551  0.87311304  0.28017822     0.08800
C519        C  0.17445735  0.83698453  0.27718625     0.02600
H520        H  0.21475168  0.88852447  0.28943558     0.10200
H521        H  0.15893292  0.82980348  0.27155864     0.09300
N522        N  0.25804727  0.76560296  0.29248640    -0.34600
N523        N  0.25703850  0.72796912  0.29097185    -0.26700
C524        C  0.27572102  0.71414388  0.29013260    -0.02000
C525        C  0.28911793  0.74445730  0.29100555     0.06600
C526        C  0.27738508  0.77661809  0.29257187     0.04700
H527        H  0.27924715  0.68424738  0.28776487     0.09800
H528        H  0.28248643  0.80594461  0.29266859     0.08700
N529        N  0.72460345  0.81543189  0.22954227    -0.25700
N530        N  0.74069549  0.79447475  0.23494461    -0.33600
C531        C  0.75656873  0.81794337  0.24029840     0.02600
C532        C  0.75037840  0.85539913  0.23805407     0.08600
C533        C  0.72995053  0.85269458  0.23113179    -0.04500
H534        H  0.77156236  0.80845200  0.24646778     0.09300
H535        H  0.71959262  0.87600135  0.22906876     0.10500
Cu536      Cu  0.74075234  0.73440077  0.23685864     0.44200
Cu537      Cu  0.69575531  0.79213367  0.22391847     0.42000
Cu538      Cu  0.69308218  0.68863288  0.22338540     0.43900
N539        N  0.73683985  0.67466211  0.23592050    -0.33100
N540        N  0.71922350  0.65839080  0.22914614    -0.27400
C541        C  0.72106507  0.62029589  0.22932553    -0.03500
C542        C  0.74072783  0.61172116  0.23725744     0.08800
C543        C  0.75036857  0.64694482  0.24132338     0.02600
H544        H  0.70879429  0.60026814  0.22533138     0.10200
H545        H  0.76603694  0.65199899  0.24764354     0.09300
N546        N  0.66824262  0.72308814  0.22336126    -0.34600
N547        N  0.66896406  0.76072643  0.22351472    -0.26700
C548        C  0.65012455  0.77387376  0.22482989    -0.02000
C549        C  0.63703941  0.74298864  0.22557398     0.06600
C550        C  0.64907510  0.71133461  0.22460532     0.04700
H551        H  0.64626620  0.80367898  0.22567694     0.09800
H552        H  0.64430810  0.68183576  0.22531397     0.08700
C553        C  0.79622511  0.48741676  0.30596366     0.88100
C554        C  0.78518084  0.95576170  0.28138731    -0.52200
C555        C  0.77255074  0.95805173  0.25099069     0.11000
C556        C  0.77331622  0.49365908  0.24649682     0.21900
C557        C  0.80767448  0.48716914  0.26866517    -0.52900
C558        C  0.79572467  0.49055204  0.23718832     0.11100
C559        C  0.78432725  0.52420891  0.30523449    -0.52400
C560        C  0.77249572  0.52827110  0.27415584     0.11700
H561        H  0.78478377  0.93237605  0.30099826     0.16200
H562        H  0.76361803  0.49610996  0.22114629     0.01900
H563        H  0.82377281  0.48451316  0.26797193     0.16500
H564        H  0.78614265  0.54644892  0.32659570     0.16300
N565        N  0.07941516  0.98346574  0.06332335    -0.25700
N566        N  0.09598728  0.97834921  0.04421958    -0.33600
C567        C  0.11165883  0.97678973  0.06776880     0.02600
C568        C  0.10474693  0.98106341  0.10367456     0.08600
C569        C  0.08416698  0.98519402  0.10014484    -0.04500
H570        H  0.12701462  0.97323633  0.05919767     0.09300
H571        H  0.07348735  0.98949588  0.12226423     0.10500
Cu572      Cu  0.09824383  0.03726446  0.48820225     0.44200
Cu573      Cu  0.05161089  0.98857106  0.03721667     0.42000
Cu574      Cu  0.05301288  0.01148735  0.43846757     0.43900
N575        N  0.09736079  0.02568119  0.43203624    -0.33100
N576        N  0.08095557  0.01510871  0.41360066    -0.27400
C577        C  0.08582073  0.00610386  0.37805174    -0.03500
C578        C  0.10637608  0.01114996  0.37443053     0.08800
C579        C  0.11312312  0.02378557  0.40910528     0.02600
H580        H  0.07524311  0.99642802  0.35706316     0.10200
H581        H  0.12835989  0.03004552  0.41741905     0.09300
N582        N  0.02728985  0.00985771  0.47076082    -0.34600
N583        N  0.02625446  0.99185461  0.00301175    -0.26700
C584        C  0.00721899  0.99398388  0.01468285    -0.02000
C585        C  0.99593373  0.00520152  0.48911208     0.06600
C586        C  0.00838539  0.00392787  0.45844501     0.04700
H587        H  0.00273824  0.99443181  0.04382404     0.09800
H588        H  0.00406516  0.99911805  0.42934888     0.08700
N589        N  0.84167163  0.48758913  0.44826471    -0.25700
N590        N  0.82555359  0.48819697  0.46949841    -0.33600
C591        C  0.80924061  0.48698487  0.44685240     0.02600
C592        C  0.81539402  0.48547920  0.40974117     0.08600
C593        C  0.83607568  0.48590570  0.41183859    -0.04500
H594        H  0.79399324  0.48758388  0.45664120     0.09900
H595        H  0.84642956  0.48563999  0.38871847     0.10500
Cu596      Cu  0.82666826  0.49114713  0.52843462     0.44200
Cu597      Cu  0.87088249  0.49028426  0.46851548     0.42000
Cu598      Cu  0.87875472  0.49030377  0.07379746     0.43900
N599        N  0.83407666  0.49396841  0.08796208    -0.33100
N600        N  0.85209960  0.49164321  0.10338311    -0.27400
C601        C  0.85034483  0.49009910  0.14089470    -0.03500
C602        C  0.83033813  0.49151248  0.14988489     0.08800
C603        C  0.82034733  0.49398721  0.11555838     0.02600
H604        H  0.86281596  0.48800911  0.16035906     0.10200
H605        H  0.80437816  0.49558377  0.11088884     0.09300
N606        N  0.90381739  0.48859812  0.03969183    -0.34600
N607        N  0.89891833  0.49365881  0.49400960    -0.26700
C608        C  0.91698639  0.49445576  0.47770473    -0.02000
C609        C  0.93138081  0.49628768  0.50585427     0.06600
C610        C  0.92324278  0.48750851  0.05003938     0.04700
H611        H  0.91942776  0.49346093  0.44768779     0.09800
H612        H  0.92865172  0.48743233  0.07882081     0.08700
C613        C  0.97076595  0.49686310  0.49910678    -0.11700
C614        C  0.95276997  0.49671081  0.50157443    -0.13300
C615        C  0.80235926  0.48545123  0.37569187    -0.14900
C616        C  0.80962229  0.48439331  0.34046454    -0.30000
H617        H  0.78632246  0.48736066  0.37964636     0.14200
H618        H  0.83053650  0.98376262  0.31364131     0.14700
C619        C  0.82258541  0.49047180  0.18872364    -0.14900
C620        C  0.80306313  0.49138989  0.19758297    -0.30000
H621        H  0.83598854  0.99676124  0.18727620     0.14200
H622        H  0.79195950  0.49309016  0.17521289     0.14700
C623        C  0.74891645  0.57286686  0.24190995    -0.14900
C624        C  0.76377127  0.56632124  0.26651388    -0.30000
H625        H  0.74165850  0.54921168  0.22706494     0.14200
H626        H  0.76960931  0.59025506  0.28314075     0.14700
C627        C  0.76327746  0.88939421  0.24635569    -0.14900
C628        C  0.75843590  0.92612594  0.24004496    -0.30000
H629        H  0.77795331  0.88334146  0.25798911     0.14200
H630        H  0.74456212  0.93273427  0.22559682     0.14700
C631        C  0.43879545  0.55821572  0.24134778    -0.11700
C632        C  0.42877144  0.58642762  0.24260629    -0.13300
C633        C  0.44163965  0.92124473  0.24754310    -0.11700
C634        C  0.43192075  0.89224107  0.24657010    -0.13300
C635        C  0.49235348  0.58937675  0.23470922    -0.11700
C636        C  0.48251279  0.56052642  0.23648071    -0.13300
C637        C  0.48519562  0.92438926  0.25265787    -0.11700
C638        C  0.49509144  0.89603965  0.25237060    -0.13300
C639        C  0.11883727  0.00461213  0.34116869    -0.14900
C640        C  0.11103306  0.98866840  0.31007580    -0.30000
H641        H  0.13435523  0.01457181  0.34183080     0.14200
H642        H  0.13490445  0.49831928  0.34049778     0.14700
C643        C  0.11741085  0.98154350  0.13752341    -0.14900
C644        C  0.10974998  0.98506084  0.17178166    -0.30000
H645        H  0.13347758  0.97852407  0.13428512     0.14200
H646        H  0.10129291  0.49735531  0.17906658     0.14700
C647        C  0.16488625  0.59956359  0.25084919    -0.14900
C648        C  0.17028895  0.56327153  0.25649445    -0.30000
H649        H  0.15042151  0.60524059  0.23807637     0.14200
H650        H  0.18386879  0.55723028  0.27217325     0.14700
C651        C  0.15638145  0.91186821  0.25299177    -0.14900
C652        C  0.17310814  0.91015336  0.27401581    -0.30000
H653        H  0.15038908  0.88583826  0.24023943     0.14200
H654        H  0.18033332  0.93610176  0.28439221     0.14700
C655        C  0.12597011  0.01045775  0.70508730     0.88100
C656        C  0.13659632  0.97216345  0.70558088    -0.52200
C657        C  0.14772110  0.96606436  0.73734138     0.11000
C658        C  0.15065765  0.49843414  0.76529858     0.21900
C659        C  0.11571694  0.50435916  0.74615067    -0.52900
C660        C  0.12452088  0.00566378  0.77277797     0.11100
C661        C  0.14157950  0.53621447  0.71077873    -0.52400
C662        C  0.15419834  0.53437253  0.74117337     0.11700
H663        H  0.13473412  0.95090423  0.68329215     0.16200
H664        H  0.16100834  0.49627441  0.78976863     0.01900
H665        H  0.09966646  0.50714744  0.74826299     0.16500
H666        H  0.14182334  0.55958953  0.69113719     0.16300
C667        C  0.47579484  0.96232568  0.75682925     0.03900
C668        C  0.45474611  0.95995353  0.75726122     0.03800
C669        C  0.44151609  0.49237721  0.72346041    -0.16700
C670        C  0.45075458  0.52823086  0.72146532     0.03900
C671        C  0.47178103  0.53088009  0.71974179     0.03800
C672        C  0.48318133  0.49770354  0.72035285    -0.16700
H673        H  0.49936528  0.49981393  0.71947746     0.05900
H674        H  0.42535324  0.49030786  0.72508846     0.05900
N675        N  0.39647088  0.82067952  0.76016642    -0.25700
N676        N  0.41280617  0.80048042  0.75522892    -0.33600
C677        C  0.42878252  0.82397348  0.75395743     0.02600
C678        C  0.42218223  0.86073401  0.75831309     0.08600
C679        C  0.40166248  0.85783443  0.76216769    -0.04500
H680        H  0.44401420  0.81490872  0.74984765     0.09300
H681        H  0.39128319  0.88093613  0.76585953     0.10500
Cu682      Cu  0.41255309  0.74207692  0.74937696     0.44200
Cu683      Cu  0.36806030  0.79566442  0.76300801     0.42000
Cu684      Cu  0.36512212  0.69145189  0.75095640     0.43900
N685        N  0.40978193  0.68400897  0.74199629    -0.33100
N686        N  0.39263318  0.66488149  0.74243957    -0.27400
C687        C  0.39642370  0.62762995  0.73660611    -0.03500
C688        C  0.41685000  0.62368729  0.73225748     0.08800
C689        C  0.42482616  0.65980266  0.73590173     0.02600
H690        H  0.38520465  0.60520064  0.73577881     0.10200
H691        H  0.44044085  0.66797705  0.73443521     0.09300
N692        N  0.34031170  0.72644679  0.75911893    -0.34600
N693        N  0.34146186  0.76391582  0.76346151    -0.26700
C694        C  0.32287767  0.77771242  0.76733935    -0.02000
C695        C  0.30931873  0.74766836  0.76534475     0.06600
C696        C  0.32092005  0.71559329  0.76016937     0.04700
H697        H  0.31949040  0.80755049  0.77101422     0.09800
H698        H  0.31564496  0.68649840  0.75698626     0.08700
N699        N  0.52989963  0.66992835  0.72207833    -0.25700
N700        N  0.51342314  0.69021412  0.72443680    -0.33600
C701        C  0.49738615  0.66683393  0.72322897     0.02600
C702        C  0.50409684  0.63009404  0.71985450     0.08600
C703        C  0.52472685  0.63282960  0.71924387    -0.04500
H704        H  0.48203436  0.67596118  0.72514610     0.09300
H705        H  0.53518651  0.60965271  0.71730501     0.10500
Cu706      Cu  0.51331262  0.74846545  0.73054220     0.44200
Cu707      Cu  0.55849558  0.69437025  0.72370080     0.42000
Cu708      Cu  0.56049878  0.79807696  0.73675670     0.43900
N709        N  0.51596426  0.80617981  0.73972142    -0.33100
N710        N  0.53320977  0.82481897  0.74239351    -0.27400
C711        C  0.52958142  0.86199011  0.74854866    -0.03500
C712        C  0.50910545  0.86639528  0.74977646     0.08800
C713        C  0.50092346  0.83070711  0.74403531     0.02600
H714        H  0.54094557  0.88402464  0.75146414     0.10200
H715        H  0.48521060  0.82308084  0.74274232     0.09300
N716        N  0.58543538  0.76424043  0.73012968    -0.34600
N717        N  0.58486522  0.72677029  0.72575740    -0.26700
C718        C  0.60371946  0.71411138  0.72279184    -0.02000
C719        C  0.61668660  0.74510075  0.72529094     0.06600
C720        C  0.60457319  0.77634479  0.72989611     0.04700
H721        H  0.60766975  0.68454525  0.71906277     0.09800
H722        H  0.60928994  0.80577250  0.73309266     0.08700
N723        N  0.19967624  0.67891197  0.76228730    -0.25700
N724        N  0.18320818  0.69925643  0.75936150    -0.33600
C725        C  0.16752127  0.67516184  0.75478425     0.02600
C726        C  0.17432789  0.63799331  0.75511215     0.08600
C727        C  0.19484237  0.64151141  0.75995738    -0.04500
H728        H  0.15223918  0.68403777  0.75055719     0.09300
H729        H  0.20557457  0.61872439  0.76011129     0.10500
Cu730      Cu  0.18272782  0.75934744  0.76029715     0.44200
Cu731      Cu  0.22820761  0.70305672  0.76607739     0.42000
Cu732      Cu  0.23106376  0.80613598  0.77280953     0.43900
N733        N  0.18647228  0.81904579  0.76396666    -0.33100
N734        N  0.20409659  0.83568890  0.76998541    -0.27400
C735        C  0.20170853  0.87373379  0.77172769    -0.03500
C736        C  0.18171514  0.88187141  0.76596871     0.08800
C737        C  0.17247769  0.84636398  0.76112198     0.02600
H738        H  0.21379105  0.89416241  0.77574308     0.10200
H739        H  0.15674036  0.84079020  0.75599597     0.09300
N740        N  0.25618954  0.77118515  0.77063034    -0.34600
N741        N  0.25505928  0.73363673  0.76778471    -0.26700
C742        C  0.27367203  0.71957774  0.76568688    -0.02000
C743        C  0.28724591  0.74962180  0.76738024     0.06600
C744        C  0.27560953  0.78191612  0.77054282     0.04700
H745        H  0.27704800  0.68965004  0.76285738     0.09800
H746        H  0.28085678  0.81113250  0.77217176     0.08700
N747        N  0.72544904  0.81961761  0.73211862    -0.25700
N748        N  0.74166260  0.79879700  0.73628058    -0.33600
C749        C  0.75754988  0.82200772  0.74172548     0.02600
C750        C  0.75120339  0.85921593  0.74074674     0.08600
C751        C  0.73072328  0.85677791  0.73453133    -0.04500
H752        H  0.77262500  0.81242956  0.74695556     0.09300
H753        H  0.72032291  0.88008737  0.73349188     0.10500
Cu754      Cu  0.74205712  0.73963020  0.73656155     0.44200
Cu755      Cu  0.69679356  0.79599660  0.72666777     0.42000
Cu756      Cu  0.69517280  0.69210748  0.72245540     0.43900
N757        N  0.73901387  0.68065341  0.73576724    -0.33100
N758        N  0.72170413  0.66320352  0.72922042    -0.27400
C759        C  0.72426799  0.62534247  0.73067249    -0.03500
C760        C  0.74409320  0.61854049  0.73910671     0.08800
C761        C  0.75306457  0.65430590  0.74206826     0.02600
H762        H  0.71240326  0.60435187  0.72727375     0.10200
H763        H  0.76858266  0.66077236  0.74853325     0.09300
N764        N  0.67004333  0.72591317  0.72231401    -0.34600
N765        N  0.67048123  0.76354688  0.72415046    -0.26700
C766        C  0.65156747  0.77618128  0.72515138    -0.02000
C767        C  0.63868924  0.74501125  0.72386175     0.06600
C768        C  0.65092382  0.71366248  0.72204561     0.04700
H769        H  0.64751831  0.80584976  0.72710326     0.09800
H770        H  0.64632009  0.68404556  0.72126239     0.08700
C771        C  0.80203914  0.49874356  0.80764568     0.88100
C772        C  0.78488345  0.96222444  0.78134399    -0.52200
C773        C  0.77270509  0.96125243  0.75018359     0.11000
C774        C  0.77800980  0.50415202  0.74975063     0.21900
C775        C  0.81259793  0.49493181  0.76961512    -0.52900
C776        C  0.80000241  0.49794473  0.73899707     0.11100
C777        C  0.79129014  0.53682778  0.80567460    -0.52400
C778        C  0.77873606  0.54003544  0.77549400     0.11700
H779        H  0.78480698  0.94017331  0.80241904     0.16200
H780        H  0.76787128  0.50615717  0.72496737     0.01900
H781        H  0.82851660  0.49007500  0.76772329     0.16500
H782        H  0.79394601  0.55989090  0.82586162     0.16300
N783        N  0.08129544  0.02866648  0.56487649    -0.25700
N784        N  0.09771136  0.03371931  0.54519974    -0.33600
C785        C  0.11379047  0.03176281  0.56785612     0.02600
C786        C  0.10729039  0.02538200  0.60373228     0.08600
C787        C  0.08655544  0.02367202  0.60104375    -0.04500
H788        H  0.12911087  0.03342074  0.55855024     0.09300
H789        H  0.07608823  0.01754019  0.62314066     0.10500
Cu790      Cu  0.09737975  0.97556202  0.98754509     0.44200
Cu791      Cu  0.05294827  0.02395762  0.54033355     0.42000
Cu792      Cu  0.05262570  0.98833099  0.93393320     0.43900
N793        N  0.09747168  0.97967844  0.93095367    -0.33100
N794        N  0.08120959  0.98518912  0.91050077    -0.27400
C795        C  0.08672560  0.98910712  0.87451755    -0.03500
C796        C  0.10744136  0.98597839  0.87281036     0.08800
C797        C  0.11365738  0.97974487  0.90906557     0.02600
H798        H  0.07640539  0.99394100  0.85151309     0.10200
H799        H  0.12886859  0.97658205  0.91909545     0.09300
N800        N  0.02644809  0.99155836  0.96575281    -0.34600
N801        N  0.02723223  0.01478159  0.50774061    -0.26700
C802        C  0.00827868  0.01214407  0.51988061    -0.02000
C803        C  0.99483473  0.99506173  0.98344682     0.06600
C804        C  0.00743671  0.99346373  0.95286932     0.04700
H805        H  0.00385166  0.01500041  0.54893763     0.09800
H806        H  0.00312662  0.99348387  0.92346016     0.08700
N807        N  0.84676604  0.49412207  0.95099867    -0.25700
N808        N  0.83027891  0.49608028  0.97114852    -0.33600
C809        C  0.81444001  0.49766594  0.94759987     0.02600
C810        C  0.82121451  0.49660414  0.91100204     0.08600
C811        C  0.84181527  0.49437577  0.91420215    -0.04500
H812        H  0.79906320  0.49949647  0.95648439     0.09900
H813        H  0.85249759  0.49324424  0.89163128     0.10500
Cu814      Cu  0.82962383  0.49625568  0.02984205     0.44200
Cu815      Cu  0.87545866  0.49131162  0.97364424     0.42000
Cu816      Cu  0.87756075  0.49399416  0.56755576     0.43900
N817        N  0.83340017  0.49296118  0.58616430    -0.33100
N818        N  0.85193244  0.49371439  0.59959174    -0.27400
C819        C  0.85152228  0.49450420  0.63730200    -0.03500
C820        C  0.83187779  0.49428562  0.64856854     0.08800
C821        C  0.82067965  0.49331227  0.61539864     0.02600
H822        H  0.86466868  0.49529711  0.65531058     0.10200
H823        H  0.80456650  0.49289649  0.61260600     0.09300
N824        N  0.90136433  0.49493675  0.53092193    -0.34600
N825        N  0.90253493  0.48881734  0.00257467    -0.26700
C826        C  0.92107081  0.48783153  0.98826047    -0.02000
C827        C  0.93461654  0.48698302  0.01781249     0.06600
C828        C  0.92103038  0.49655457  0.53921578     0.04700
H829        H  0.92441754  0.48809820  0.95857283     0.09800
H830        H  0.92729092  0.49756345  0.56739964     0.08700
C831        C  0.97413058  0.48725383  0.01227167    -0.11700
C832        C  0.95613729  0.48690422  0.01529916    -0.13300
C833        C  0.80856072  0.49836261  0.87673532    -0.14900
C834        C  0.81576613  0.49580052  0.84160027    -0.30000
H835        H  0.79260302  0.50206327  0.88054153     0.14200
H836        H  0.82851820  0.99777539  0.81392580     0.14700
C837        C  0.82545238  0.49531238  0.68822585    -0.14900
C838        C  0.80623323  0.49577506  0.69886841    -0.30000
H839        H  0.83612841  0.99646954  0.68770406     0.14200
H840        H  0.79450838  0.49547925  0.67752817     0.14700
C841        C  0.75309451  0.58085938  0.74534480    -0.14900
C842        C  0.76934810  0.57707902  0.76728319    -0.30000
H843        H  0.74550206  0.55585526  0.73365056     0.14200
H844        H  0.77575630  0.60220359  0.78116630     0.14700
C845        C  0.76397166  0.89290919  0.74911542    -0.14900
C846        C  0.75896072  0.92883060  0.74087639    -0.30000
H847        H  0.77852345  0.88751891  0.76166319     0.14200
H848        H  0.74526919  0.93434588  0.72533098     0.14700
C849        C  0.43837821  0.56164674  0.72328047    -0.11700
C850        C  0.42801471  0.58935613  0.72663483    -0.13300
C851        C  0.44411356  0.92389208  0.75768822    -0.11700
C852        C  0.43424704  0.89491353  0.75804913    -0.13300
C853        C  0.49202148  0.59602072  0.71883932    -0.11700
C854        C  0.48220484  0.56703209  0.71877059    -0.13300
C855        C  0.48796170  0.92883196  0.75601930    -0.11700
C856        C  0.49815382  0.90092108  0.75397178    -0.13300
C857        C  0.12052354  0.98915791  0.83993318    -0.14900
C858        C  0.11379335  0.00535280  0.80869000    -0.30000
H859        H  0.13549366  0.97767083  0.84141858     0.14200
H860        H  0.13379005  0.50136459  0.83823912     0.14700
C861        C  0.12031056  0.01898323  0.63654102    -0.14900
C862        C  0.11291801  0.01668755  0.67113648    -0.30000
H863        H  0.13631349  0.01665690  0.63232591     0.14200
H864        H  0.09615017  0.50835471  0.67923011     0.14700
C865        C  0.16193340  0.60343740  0.74687640    -0.14900
C866        C  0.16768101  0.56706257  0.75232039    -0.30000
H867        H  0.14699742  0.60859117  0.73597172     0.14200
H868        H  0.18182850  0.56128025  0.76619046     0.14700
C869        C  0.15623586  0.92747898  0.74378334    -0.14900
C870        C  0.17288148  0.92068647  0.76400862    -0.30000
H871        H  0.14916904  0.90377717  0.72859939     0.14200
H872        H  0.18110201  0.94442224  0.77682549     0.14700
loop_ 
_geom_bond_atom_site_label_1 
_geom_bond_atom_site_label_2 
_geom_bond_distance 
_geom_bond_site_symmetry_2 
_ccdc_geom_bond_type 
C1            C2   1.531       .  S
C1          C208   1.519       .  S
C1          C443   1.532       .  S
C1          C441   1.539       .  S
C2            H9   1.086       .  S
C2            C3   1.368       .  D
C3          C440   1.545       .  S
C3          C215   1.491       .  S
C4            C8   1.548   1_565  S
C4          C439   1.551       .  S
C4          C442   1.549       .  S
C4           H10   1.109       .  S
C5          C437   1.518       .  S
C5           H11   1.090       .  S
C5          C442   1.355       .  D
C6          C440   1.544       .  S
C6          C441   1.375       .  D
C6          C204   1.499       .  S
C7          C437   1.531   1_545  S
C7           H12   1.086       .  S
C7            C8   1.370       .  D
C8          C212   1.493       .  S
C13          C14   1.410       .  A
C13         C454   1.399       .  A
C13         C201   1.440       .  S
C14         C451   1.399       .  A
C14         C197   1.444       .  S
C15          C16   1.398   1_565  A
C15         C450   1.398       .  A
C15          H20   1.085       .  S
C16          C17   1.409       .  A
C16         C195   1.441       .  S
C17          C18   1.398   1_545  A
C17         C200   1.438       .  S
C18         C449   1.397       .  A
C18          H19   1.085       .  S
N21          N22   1.322       .  A
N21          C25   1.348       .  A
N21         Cu29   2.093       .  S
N22          C23   1.343       .  A
N22         Cu28   2.052       .  S
C23          C24   1.375       .  A
C23          H26   1.082       .  S
C24          C25   1.385       .  A
C24         C198   1.437       .  S
C25          H27   1.082       .  S
Cu28         N31   2.052       .  S
Cu29         N39   2.094       .  S
Cu30         N32   2.085       .  S
Cu30         N38   2.086       .  S
N31          N32   1.322       .  A
N31          C35   1.342       .  A
N32          C33   1.347       .  A
C33          C34   1.383       .  A
C33          H36   1.082       .  S
C34          C35   1.374       .  A
C34         C196   1.434       .  S
C35          H37   1.082       .  S
N38          N39   1.325       .  A
N38          C42   1.348       .  A
N39          C40   1.348       .  A
C40          C41   1.386       .  A
C40          H43   1.082       .  S
C41          C42   1.385       .  A
C41          C89   1.480       .  S
C42          H44   1.082       .  S
N45          N46   1.322       .  A
N45          C49   1.345       .  A
N45         Cu53   2.071       .  S
N46          C47   1.343       .  A
N46         Cu52   2.054       .  S
C47          C48   1.375       .  A
C47          H50   1.082       .  S
C48          C49   1.380       .  A
C48         C199   1.430       .  S
C49          H51   1.082       .  S
Cu52         N55   2.054       .  S
Cu53         N63   2.072       .  S
Cu54         N56   2.075       .  S
Cu54         N62   2.075       .  S
N55          N56   1.322       .  A
N55          C59   1.342       .  A
N56          C57   1.346       .  A
C57          C58   1.382       .  A
C57          H60   1.082       .  S
C58          C59   1.375       .  A
C58         C202   1.433       .  S
C59          H61   1.082       .  S
N62          N63   1.323       .  A
N62          C66   1.345       .  A
N63          C64   1.344       .  A
C64          C65   1.382       .  A
C64          H67   1.082       .  S
C65          C66   1.382       .  A
C65         C113   1.469       .  S
C66          H68   1.082       .  S
N69          N70   1.322       .  A
N69          C73   1.353       .  A
N69         Cu77   2.096       .  S
N70          C71   1.342       .  A
N70         Cu76   2.073       .  S
C71          C72   1.380       .  A
C71          H74   1.082       .  S
C72          C73   1.390       .  A
C72         C211   1.480       .  S
C73          H75   1.081       .  S
Cu76         N79   2.073       .  S
Cu77         N87   2.098       .  S
Cu78         N80   2.088       .  S
Cu78         N86   2.090       .  S
N79          N80   1.321       .  A
N79          C83   1.343       .  A
N80          C81   1.351       .  A
C81          C82   1.389       .  A
C81          H84   1.082       .  S
C82          C83   1.381       .  A
C82         C216   1.480       .  S
C83          H85   1.082       .  S
N86          N87   1.326       .  A
N86          C90   1.347       .  A
N87          C88   1.349       .  A
C88          C89   1.386       .  A
C88          H91   1.082       .  S
C89          C90   1.384       .  A
C90          H92   1.082       .  S
N93          N94   1.324       .  A
N93          C97   1.350       .  A
N93        Cu101   2.077       .  S
N94          C95   1.348       .  A
N94        Cu100   2.113       .  S
C95          C96   1.389       .  A
C95          H98   1.082       .  S
C96          C97   1.385       .  A
C96         C191   1.486       .  S
C97          H99   1.082       .  S
Cu100       N103   2.112       .  S
Cu101       N111   2.077       .  S
Cu102       N104   2.065       .  S
Cu102       N110   2.066       .  S
N103        N104   1.322       .  A
N103        C107   1.350       .  A
N104        C105   1.347       .  A
C105        C106   1.381       .  A
C105        H108   1.082       .  S
C106        C107   1.394       .  A
C106        C187   1.489       .  S
C107        H109   1.082       .  S
N110        N111   1.323       .  A
N110        C114   1.343       .  A
N111        C112   1.346       .  A
C112        C113   1.383       .  A
C112        H115   1.082       .  S
C113        C114   1.381       .  A
C114        H116   1.082       .  S
C117        C123   1.524   1_565  S
C117        C121   1.537       .  S
C117        C180   1.516       .  S
C117        C554   1.529       .  S
C118        C553   1.528       .  S
C118        H125   1.086       .  S
C118        C119   1.368       .  D
C119        C556   1.554       .  S
C119        C192   1.497       .  S
C120        C124   1.556   1_565  S
C120        C122   1.548       .  S
C120        C555   1.557       .  S
C120        H126   1.110       .  S
C121        H127   1.083       .  S
C121        C122   1.377       .  D
C122        C184   1.500       .  S
C123        H128   1.087       .  S
C123        C124   1.360       .  D
C124        C188   1.490       .  S
N129        N130   1.324       .  A
N129        C133   1.346       .  A
N129       Cu137   2.081       .  S
N130        C131   1.349       .  A
N130       Cu354   2.097   1_554  S
C131        C132   1.387       .  A
C131        H134   1.082       .  S
C132        C133   1.386       .  A
C132        C207   1.486       .  S
C133        H135   1.081       .  S
Cu136       N139   2.093       .  S
Cu136       N348   2.094       .  S
Cu137       N147   2.080       .  S
Cu138       N140   2.077       .  S
Cu138       N146   2.077       .  S
N139        N140   1.322       .  A
N139        C143   1.352       .  A
N140        C141   1.343       .  A
C141        C142   1.382       .  A
C141        H144   1.082       .  S
C142        C143   1.391       .  A
C142        C203   1.484       .  S
C143        H145   1.081       .  S
N146        N365   1.323       .  A
N146        C150   1.347       .  A
N147        N364   1.322   1_554  A
N147        C148   1.347       .  A
C148        C367   1.382   1_455  A
C148        H151   1.082       .  S
C149        C150   1.381   1_655  A
C149        C366   1.381   1_655  A
C149        C613   1.441       .  S
C150        H152   1.082   1_455  S
N153        N154   1.324       .  A
N153        C157   1.347       .  A
N153       Cu161   2.078       .  S
N154        C155   1.347       .  A
N154       Cu160   2.094       .  S
C155        C156   1.384       .  A
C155        H158   1.082       .  S
C156        C157   1.385       .  A
C156        C179   1.481       .  S
C157        H159   1.081       .  S
Cu160       N381   2.093       .  S
Cu161       N171   2.077       .  S
Cu162       N164   2.085       .  S
Cu162       N170   2.084       .  S
N163        N164   1.324       .  A
N163        C167   1.352       .  A
N163       Cu378   2.094       .  S
N164        C165   1.343       .  A
C165        C166   1.382       .  A
C165        H168   1.082       .  S
C166        C167   1.390       .  A
C166        C183   1.484       .  S
C167        H169   1.082       .  S
N170        N389   1.322   1_554  A
N170        C174   1.348       .  A
N171        N388   1.322       .  A
N171        C172   1.347       .  A
C172        C173   1.382       .  A
C172        H175   1.082       .  S
C173        C392   1.380       .  A
C173        C178   1.441       .  S
C174        C391   1.383   1_554  A
C174        H176   1.082       .  S
C177        C585   1.441       .  S
C177        C178   1.208   1_545  T
C179        H181   1.087       .  S
C179        C180   1.348       .  D
C180        H618   1.085       .  S
H182        C616   1.085       .  S
C183        H621   1.082       .  S
C183        C184   1.350       .  D
C184        H186   1.085       .  S
H185        C619   1.082       .  S
C187        H189   1.086       .  S
C187        C188   1.340       .  D
C188        H190   1.087       .  S
C191        H193   1.086       .  S
C191        C192   1.354       .  D
C192        H194   1.085       .  S
C195        C196   1.204       .  T
C197        C198   1.206       .  T
C199        C200   1.202       .  T
C201        C202   1.204       .  T
C203        H205   1.082       .  S
C203        C204   1.349       .  D
C204        H642   1.085       .  S
H206        C640   1.091       .  S
C207        H209   1.086       .  S
C207        C208   1.349       .  D
C208        H646   1.085       .  S
H210        C644   1.087       .  S
C211        H213   1.087       .  S
C211        C212   1.348       .  D
C212        H214   1.086       .  S
C215        H217   1.085       .  S
C215        C216   1.347       .  D
C216        H218   1.086       .  S
C219        C220   1.527       .  S
C219        C661   1.527       .  S
C219        C659   1.537       .  S
C219        C426   1.518       .  S
C220        H227   1.087       .  S
C220        C221   1.363       .  D
C221        C658   1.556       .  S
C221        C433   1.494       .  S
C222        C657   1.559       .  S
C222        C226   1.557   1_565  S
C222        C660   1.552   1_565  S
C222        H228   1.109       .  S
C223        C655   1.520       .  S
C223        H229   1.088       .  S
C223        C660   1.356       .  D
C224        C658   1.546       .  S
C224        C659   1.376       .  D
C224        C422   1.497       .  S
C225        C655   1.528       .  S
C225        H230   1.086       .  S
C225        C226   1.369       .  D
C226        C430   1.499       .  S
C231        C232   1.411       .  A
C231        C672   1.400       .  A
C231        C419   1.445       .  S
C232        C669   1.401       .  A
C232        C415   1.443       .  S
C233        C668   1.400       .  A
C233        C234   1.400   1_565  A
C233        H238   1.085       .  S
C234        C235   1.411       .  A
C234        C413   1.441       .  S
C235        C236   1.399   1_545  A
C235        C418   1.445       .  S
C236        C667   1.399       .  A
C236        H237   1.085       .  S
N239        N240   1.322       .  A
N239        C243   1.347       .  A
N239       Cu247   2.085       .  S
N240        C241   1.343       .  A
N240       Cu246   2.055       .  S
C241        C242   1.376       .  A
C241        H244   1.082       .  S
C242        C243   1.383       .  A
C242        C416   1.437       .  S
C243        H245   1.082       .  S
Cu246       N249   2.054       .  S
Cu247       N257   2.086       .  S
Cu248       N250   2.085       .  S
Cu248       N256   2.086       .  S
N249        N250   1.323       .  A
N249        C253   1.342       .  A
N250        C251   1.348       .  A
C251        C252   1.384       .  A
C251        H254   1.082       .  S
C252        C253   1.374       .  A
C252        C414   1.435       .  S
C253        H255   1.082       .  S
N256        N257   1.324       .  A
N256        C260   1.347       .  A
N257        C258   1.346       .  A
C258        C259   1.384       .  A
C258        H261   1.082       .  S
C259        C260   1.384       .  A
C259        C307   1.476       .  S
C260        H262   1.082       .  S
N263        N264   1.322       .  A
N263        C267   1.348       .  A
N263       Cu271   2.088       .  S
N264        C265   1.344       .  A
N264       Cu270   2.057       .  S
C265        C266   1.376       .  A
C265        H268   1.082       .  S
C266        C267   1.384       .  A
C266        C417   1.438       .  S
C267        H269   1.082       .  S
Cu270       N273   2.057       .  S
Cu271       N281   2.089       .  S
Cu272       N274   2.087       .  S
Cu272       N280   2.087       .  S
N273        N274   1.322       .  A
N273        C277   1.342       .  A
N274        C275   1.349       .  A
C275        C276   1.384       .  A
C275        H278   1.082       .  S
C276        C277   1.375       .  A
C276        C420   1.438       .  S
C277        H279   1.082       .  S
N280        N281   1.325       .  A
N280        C284   1.346       .  A
N281        C282   1.348       .  A
C282        C283   1.385       .  A
C282        H285   1.082       .  S
C283        C284   1.384       .  A
C283        C331   1.477       .  S
C284        H286   1.082       .  S
N287        N288   1.325       .  A
N287        C291   1.353       .  A
N287       Cu295   2.089       .  S
N288        C289   1.346       .  A
N288       Cu294   2.111       .  S
C289        C290   1.387       .  A
C289        H292   1.082       .  S
C290        C291   1.387       .  A
C290        C429   1.487       .  S
C291        H293   1.082       .  S
Cu294       N297   2.110       .  S
Cu295       N305   2.089       .  S
Cu296       N298   2.075       .  S
Cu296       N304   2.075       .  S
N297        N298   1.322       .  A
N297        C301   1.351       .  A
N298        C299   1.347       .  A
C299        C300   1.382       .  A
C299        H302   1.082       .  S
C300        C301   1.394       .  A
C300        C434   1.491       .  S
C301        H303   1.082       .  S
N304        N305   1.323       .  A
N304        C308   1.345       .  A
N305        C306   1.348       .  A
C306        C307   1.386       .  A
C306        H309   1.082       .  S
C307        C308   1.383       .  A
C308        H310   1.082       .  S
N311        N312   1.321       .  A
N311        C315   1.352       .  A
N311       Cu319   2.086       .  S
N312        C313   1.341       .  A
N312       Cu318   2.067       .  S
C313        C314   1.379       .  A
C313        H316   1.082       .  S
C314        C315   1.389       .  A
C314        C409   1.476       .  S
C315        H317   1.082       .  S
Cu318       N321   2.067       .  S
Cu319       N329   2.089       .  S
Cu320       N322   2.092       .  S
Cu320       N328   2.095       .  S
N321        N322   1.321       .  A
N321        C325   1.342       .  A
N322        C323   1.352       .  A
C323        C324   1.391       .  A
C323        H326   1.082       .  S
C324        C325   1.380       .  A
C324        C405   1.479       .  S
C325        H327   1.082       .  S
N328        N329   1.326       .  A
N328        C332   1.348       .  A
N329        C330   1.346       .  A
C330        C331   1.383       .  A
C330        H333   1.082       .  S
C331        C332   1.385       .  A
C332        H334   1.082       .  S
C335        C772   1.532       .  S
C335        C341   1.531   1_565  S
C335        C339   1.538       .  S
C335        C398   1.518       .  S
C336        C771   1.530       .  S
C336        H343   1.086       .  S
C336        C337   1.367       .  D
C337        C774   1.543       .  S
C337        C410   1.488       .  S
C338        C773   1.541       .  S
C338        C342   1.543   1_565  S
C338        C340   1.545       .  S
C338        H344   1.111       .  S
C339        H345   1.083       .  S
C339        C340   1.375       .  D
C340        C402   1.498       .  S
C341        H346   1.086       .  S
C341        C342   1.368       .  D
C342        C406   1.490       .  S
N347        N348   1.324       .  A
N347        C351   1.348       .  A
N347       Cu355   2.083       .  S
N348        C349   1.346       .  A
C349        C350   1.384       .  A
C349        H352   1.082       .  S
C350        C351   1.387       .  A
C350        C425   1.482       .  S
C351        H353   1.081       .  S
Cu354       N357   2.096       .  S
Cu355       N365   2.082       .  S
Cu356       N358   2.078       .  S
Cu356       N364   2.078       .  S
N357        N358   1.324       .  A
N357        C361   1.352       .  A
N358        C359   1.343       .  A
C359        C360   1.380       .  A
C359        H362   1.082       .  S
C360        C361   1.390       .  A
C360        C421   1.481       .  S
C361        H363   1.081       .  S
N364        C368   1.347       .  A
N365        C366   1.347       .  A
C366        H369   1.082       .  S
C367        C368   1.382   1_654  A
C367        C831   1.444       .  S
C368        H370   1.082   1_455  S
N371        N372   1.324       .  A
N371        C375   1.346       .  A
N371       Cu379   2.082       .  S
N372        C373   1.348       .  A
N372       Cu378   2.095   1_556  S
C373        C374   1.386       .  A
C373        H376   1.082       .  S
C374        C375   1.386       .  A
C374        C397   1.484       .  S
C375        H377   1.081       .  S
Cu379       N389   2.082       .  S
Cu380       N382   2.077       .  S
Cu380       N388   2.076       .  S
N381        N382   1.322       .  A
N381        C385   1.352       .  A
N382        C383   1.343       .  A
C383        C384   1.382       .  A
C383        H386   1.082       .  S
C384        C385   1.390       .  A
C384        C401   1.483       .  S
C385        H387   1.081       .  S
N388        C392   1.346       .  A
N389        C390   1.348       .  A
C390        C391   1.383       .  A
C390        H393   1.082       .  S
C391        C396   1.447       .  S
C392        H394   1.082       .  S
C395        C803   1.446       .  S
C395        C396   1.211       .  T
C397        H399   1.087       .  S
C397        C398   1.348       .  D
C398        H836   1.085       .  S
H400        C834   1.085       .  S
C401        H839   1.082       .  S
C401        C402   1.349       .  D
C402        H404   1.085       .  S
H403        C837   1.083       .  S
C405        H407   1.087       .  S
C405        C406   1.346       .  D
C406        H408   1.086       .  S
C409        H411   1.087       .  S
C409        C410   1.346       .  D
C410        H412   1.085       .  S
C413        C414   1.205       .  T
C415        C416   1.206       .  T
C417        C418   1.206       .  T
C419        C420   1.207       .  T
C421        H423   1.082       .  S
C421        C422   1.348       .  D
C422        H860   1.085       .  S
H424        C858   1.087       .  S
C425        H427   1.087       .  S
C425        C426   1.347       .  D
C426        H864   1.085       .  S
H428        C862   1.086       .  S
C429        H431   1.086       .  S
C429        C430   1.355       .  D
C430        H432   1.085       .  S
C433        H435   1.087       .  S
C433        C434   1.342       .  D
C434        H436   1.086       .  S
C437        C438   1.527       .  S
C437        C644   1.497       .  S
C438        H445   1.086       .  S
C438        C439   1.364       .  D
C439        C651   1.481       .  S
C440        C444   1.543       .  S
C440        H446   1.111       .  S
C441        H447   1.083       .  S
C442        C640   1.467       .  S
C443        H448   1.086       .  S
C443        C444   1.369       .  D
C444        C648   1.488       .  S
C449        C450   1.408       .  A
C449        C637   1.439       .  S
C450        C633   1.439       .  S
C451        C452   1.399       .  A
C451        H456   1.085       .  S
C452        C453   1.409       .  A
C452        C631   1.441       .  S
C453        C454   1.399       .  A
C453        C636   1.443       .  S
C454        H455   1.085       .  S
N457        N458   1.322       .  A
N457        C461   1.345       .  A
N457       Cu465   2.074       .  S
N458        C459   1.343       .  A
N458       Cu464   2.055       .  S
C459        C460   1.376       .  A
C459        H462   1.082       .  S
C460        C461   1.380       .  A
C460        C634   1.431       .  S
C461        H463   1.082       .  S
Cu464       N467   2.055       .  S
Cu465       N475   2.075       .  S
Cu466       N468   2.087       .  S
Cu466       N474   2.087       .  S
N467        N468   1.323       .  A
N467        C471   1.342       .  A
N468        C469   1.347       .  A
C469        C470   1.382       .  A
C469        H472   1.082       .  S
C470        C471   1.374       .  A
C470        C632   1.434       .  S
C471        H473   1.082       .  S
N474        N475   1.323       .  A
N474        C478   1.348       .  A
N475        C476   1.345       .  A
C476        C477   1.383       .  A
C476        H479   1.082       .  S
C477        C478   1.386       .  A
C477        C525   1.476       .  S
C478        H480   1.082       .  S
N481        N482   1.322       .  A
N481        C485   1.347       .  A
N481       Cu489   2.086       .  S
N482        C483   1.343       .  A
N482       Cu488   2.055       .  S
C483        C484   1.376       .  A
C483        H486   1.082       .  S
C484        C485   1.383       .  A
C484        C635   1.436       .  S
C485        H487   1.082       .  S
Cu488       N491   2.055       .  S
Cu489       N499   2.087       .  S
Cu490       N492   2.076       .  S
Cu490       N498   2.076       .  S
N491        N492   1.323       .  A
N491        C495   1.342       .  A
N492        C493   1.346       .  A
C493        C494   1.380       .  A
C493        H496   1.082       .  S
C494        C495   1.375       .  A
C494        C638   1.431       .  S
C495        H497   1.082       .  S
N498        N499   1.324       .  A
N498        C502   1.347       .  A
N499        C500   1.346       .  A
C500        C501   1.385       .  A
C500        H503   1.082       .  S
C501        C502   1.383       .  A
C501        C549   1.475       .  S
C502        H504   1.082       .  S
N505        N506   1.322       .  A
N505        C509   1.349       .  A
N505       Cu513   2.083       .  S
N506        C507   1.344       .  A
N506       Cu512   2.079       .  S
C507        C508   1.383       .  A
C507        H510   1.082       .  S
C508        C509   1.387       .  A
C508        C647   1.479       .  S
C509        H511   1.082       .  S
Cu512       N515   2.079       .  S
Cu513       N523   2.084       .  S
Cu514       N516   2.082       .  S
Cu514       N522   2.083       .  S
N515        N516   1.322       .  A
N515        C519   1.344       .  A
N516        C517   1.349       .  A
C517        C518   1.384       .  A
C517        H520   1.082       .  S
C518        C519   1.387       .  A
C518        C652   1.484       .  S
C519        H521   1.082       .  S
N522        N523   1.324       .  A
N522        C526   1.346       .  A
N523        C524   1.347       .  A
C524        C525   1.384       .  A
C524        H527   1.082       .  S
C525        C526   1.384       .  A
C526        H528   1.082       .  S
N529        N530   1.325       .  A
N529        C533   1.354       .  A
N529       Cu537   2.094       .  S
N530        C531   1.347       .  A
N530       Cu536   2.113       .  S
C531        C532   1.388       .  A
C531        H534   1.082       .  S
C532        C533   1.388       .  A
C532        C627   1.490       .  S
C533        H535   1.082       .  S
Cu536       N539   2.112       .  S
Cu537       N547   2.094       .  S
Cu538       N540   2.067       .  S
Cu538       N546   2.068       .  S
N539        N540   1.322       .  A
N539        C543   1.352       .  A
N540        C541   1.346       .  A
C541        C542   1.380       .  A
C541        H544   1.082       .  S
C542        C543   1.394       .  A
C542        C623   1.488       .  S
C543        H545   1.082       .  S
N546        N547   1.323       .  A
N546        C550   1.344       .  A
N547        C548   1.349       .  A
C548        C549   1.387       .  A
C548        H551   1.082       .  S
C549        C550   1.381       .  A
C550        H552   1.082       .  S
C553        C559   1.527       .  S
C553        C557   1.539       .  S
C553        C616   1.517       .  S
C554        H561   1.086       .  S
C554        C555   1.369       .  D
C555        C628   1.502       .  S
C556        C560   1.555       .  S
C556        C558   1.544       .  S
C556        H562   1.110       .  S
C557        H563   1.083       .  S
C557        C558   1.376       .  D
C558        C620   1.497       .  S
C559        H564   1.087       .  S
C559        C560   1.363       .  D
C560        C624   1.493       .  S
N565        N566   1.320       .  A
N565        C569   1.345       .  A
N565       Cu573   2.081       .  S
N566        C567   1.337       .  A
N566       Cu790   2.020   1_554  S
C567        C568   1.370       .  A
C567        H570   1.083       .  S
C568        C569   1.391       .  A
C568        C643   1.464       .  S
C569        H571   1.079       .  S
Cu572       N784   2.034       .  S
Cu572       N575   2.033       .  S
Cu573       N583   2.082       .  S
Cu574       N576   2.080       .  S
Cu574       N582   2.080       .  S
N575        N576   1.319       .  A
N575        C579   1.342       .  A
N576        C577   1.343       .  A
C577        C578   1.392       .  A
C577        H580   1.072   1_545  S
C578        C579   1.374       .  A
C578        C639   1.472       .  S
C579        H581   1.078       .  S
N582        N801   1.324       .  A
N582        C586   1.347       .  A
N583        N800   1.325   1_554  A
N583        C584   1.346       .  A
C584        C803   1.380   1_454  A
C584        H587   1.082       .  S
C585        C802   1.381   1_655  A
C585        C586   1.380   1_655  A
C586        H588   1.082   1_545  S
N589        N590   1.324       .  A
N589        C593   1.345       .  A
N589       Cu597   2.076       .  S
N590        C591   1.349       .  A
N590       Cu596   2.098       .  S
C591        C592   1.387       .  A
C591        H594   1.082       .  S
C592        C593   1.385       .  A
C592        C615   1.485       .  S
C593        H595   1.081       .  S
Cu596       N817   2.097       .  S
Cu597       N607   2.076       .  S
Cu598       N600   2.081       .  S
Cu598       N606   2.081       .  S
N599        N600   1.323       .  A
N599        C603   1.352       .  A
N599       Cu814   2.088       .  S
N600        C601   1.342       .  A
C601        C602   1.381       .  A
C601        H604   1.082       .  S
C602        C603   1.390       .  A
C602        C619   1.482       .  S
C603        H605   1.082       .  S
N606        N825   1.322       .  A
N606        C610   1.348       .  A
N607        N824   1.321       .  A
N607        C608   1.347       .  A
C608        C609   1.382       .  A
C608        H611   1.082       .  S
C609        C828   1.380       .  A
C609        C614   1.441       .  S
C610        C827   1.383       .  A
C610        H612   1.082       .  S
C613        C614   1.208       .  T
C615        H617   1.086       .  S
C615        C616   1.349       .  D
C619        C620   1.348       .  D
C620        H622   1.085       .  S
C623        H625   1.085       .  S
C623        C624   1.341       .  D
C624        H626   1.087       .  S
C627        H629   1.086       .  S
C627        C628   1.356       .  D
C628        H630   1.085       .  S
C631        C632   1.204       .  T
C633        C634   1.203       .  T
C635        C636   1.205       .  T
C637        C638   1.203       .  T
C639        H641   1.092       .  S
C639        C640   1.331   1_545  D
C643        H645   1.089       .  S
C643        C644   1.332       .  D
C647        H649   1.086       .  S
C647        C648   1.347       .  D
C648        H650   1.085       .  S
C651        H653   1.086       .  S
C651        C652   1.341       .  D
C652        H654   1.085       .  S
C655        C656   1.530   1_545  S
C655        C862   1.502       .  S
C656        H663   1.087       .  S
C656        C657   1.367       .  D
C657        C869   1.497       .  S
C658        C662   1.554       .  S
C658        H664   1.110       .  S
C659        H665   1.083       .  S
C660        C858   1.472       .  S
C661        H666   1.086       .  S
C661        C662   1.367       .  D
C662        C866   1.499       .  S
C667        C668   1.410       .  A
C667        C855   1.439       .  S
C668        C851   1.446       .  S
C669        C670   1.400       .  A
C669        H674   1.085       .  S
C670        C671   1.411       .  A
C670        C849   1.446       .  S
C671        C672   1.401       .  A
C671        C854   1.443       .  S
C672        H673   1.085       .  S
N675        N676   1.322       .  A
N675        C679   1.348       .  A
N675       Cu683   2.089       .  S
N676        C677   1.345       .  A
N676       Cu682   2.060       .  S
C677        C678   1.377       .  A
C677        H680   1.082       .  S
C678        C679   1.384       .  A
C678        C852   1.440       .  S
C679        H681   1.082       .  S
Cu682       N685   2.060       .  S
Cu683       N693   2.090       .  S
Cu684       N686   2.097       .  S
Cu684       N692   2.098       .  S
N685        N686   1.323       .  A
N685        C689   1.343       .  A
N686        C687   1.350       .  A
C687        C688   1.385       .  A
C687        H690   1.082       .  S
C688        C689   1.375       .  A
C688        C850   1.439       .  S
C689        H691   1.082       .  S
N692        N693   1.325       .  A
N692        C696   1.349       .  A
N693        C694   1.348       .  A
C694        C695   1.385       .  A
C694        H697   1.082       .  S
C695        C696   1.387       .  A
C695        C743   1.482       .  S
C696        H698   1.082       .  S
N699        N700   1.323       .  A
N699        C703   1.347       .  A
N699       Cu707   2.088       .  S
N700        C701   1.344       .  A
N700       Cu706   2.056       .  S
C701        C702   1.376       .  A
C701        H704   1.082       .  S
C702        C703   1.383       .  A
C702        C853   1.436       .  S
C703        H705   1.082       .  S
Cu706       N709   2.055       .  S
Cu707       N717   2.089       .  S
Cu708       N710   2.074       .  S
Cu708       N716   2.074       .  S
N709        N710   1.322       .  A
N709        C713   1.341       .  A
N710        C711   1.347       .  A
C711        C712   1.382       .  A
C711        H714   1.082       .  S
C712        C713   1.374       .  A
C712        C856   1.432       .  S
C713        H715   1.082       .  S
N716        N717   1.324       .  A
N716        C720   1.345       .  A
N717        C718   1.347       .  A
C718        C719   1.386       .  A
C718        H721   1.082       .  S
C719        C720   1.381       .  A
C719        C767   1.474       .  S
C720        H722   1.082       .  S
N723        N724   1.324       .  A
N723        C727   1.351       .  A
N723       Cu731   2.082       .  S
N724        C725   1.348       .  A
N724       Cu730   2.112       .  S
C725        C726   1.388       .  A
C725        H728   1.082       .  S
C726        C727   1.385       .  A
C726        C865   1.486       .  S
C727        H729   1.082       .  S
Cu730       N733   2.112       .  S
Cu731       N741   2.083       .  S
Cu732       N734   2.094       .  S
Cu732       N740   2.095       .  S
N733        N734   1.324       .  A
N733        C737   1.353       .  A
N734        C735   1.349       .  A
C735        C736   1.385       .  A
C735        H738   1.082       .  S
C736        C737   1.394       .  A
C736        C870   1.495       .  S
C737        H739   1.082       .  S
N740        N741   1.323       .  A
N740        C744   1.349       .  A
N741        C742   1.348       .  A
C742        C743   1.385       .  A
C742        H745   1.082       .  S
C743        C744   1.388       .  A
C744        H746   1.082       .  S
N747        N748   1.324       .  A
N747        C751   1.350       .  A
N747       Cu755   2.086       .  S
N748        C749   1.343       .  A
N748       Cu754   2.080       .  S
C749        C750   1.380       .  A
C749        H752   1.082       .  S
C750        C751   1.387       .  A
C750        C845   1.477       .  S
C751        H753   1.082       .  S
Cu754       N757   2.080       .  S
Cu755       N765   2.087       .  S
Cu756       N758   2.069       .  S
Cu756       N764   2.070       .  S
N757        N758   1.321       .  A
N757        C761   1.346       .  A
N758        C759   1.345       .  A
C759        C760   1.381       .  A
C759        H762   1.082       .  S
C760        C761   1.389       .  A
C760        C841   1.480       .  S
C761        H763   1.082       .  S
N764        N765   1.323       .  A
N764        C768   1.345       .  A
N765        C766   1.347       .  A
C766        C767   1.386       .  A
C766        H769   1.082       .  S
C767        C768   1.381       .  A
C768        H770   1.082       .  S
C771        C777   1.529       .  S
C771        C775   1.538       .  S
C771        C834   1.515       .  S
C772        H779   1.086       .  S
C772        C773   1.368       .  D
C773        C846   1.487       .  S
C774        C778   1.548       .  S
C774        C776   1.542       .  S
C774        H780   1.110       .  S
C775        H781   1.083       .  S
C775        C776   1.376       .  D
C776        C838   1.492       .  S
C777        H782   1.087       .  S
C777        C778   1.362       .  D
C778        C842   1.483       .  S
N783        N784   1.321       .  A
N783        C787   1.344       .  A
N783       Cu791   2.083       .  S
N784        C785   1.340       .  A
C785        C786   1.373       .  A
C785        H788   1.082       .  S
C786        C787   1.390       .  A
C786        C861   1.470       .  S
C787        H789   1.081       .  S
Cu790       N793   2.020       .  S
Cu791       N801   2.083       .  S
Cu792       N794   2.098       .  S
Cu792       N800   2.099       .  S
N793        N794   1.320       .  A
N793        C797   1.341       .  A
N794        C795   1.344       .  A
C795        C796   1.394       .  A
C795        H798   1.081       .  S
C796        C797   1.372       .  A
C796        C857   1.473       .  S
C797        H799   1.082       .  S
N800        C804   1.350       .  A
N801        C802   1.347       .  A
C802        H805   1.082       .  S
C803        C804   1.384   1_655  A
C804        H806   1.082       .  S
N807        N808   1.324       .  A
N807        C811   1.347       .  A
N807       Cu815   2.078       .  S
N808        C809   1.346       .  A
N808       Cu814   2.088   1_556  S
C809        C810   1.383       .  A
C809        H812   1.082       .  S
C810        C811   1.385       .  A
C810        C833   1.479       .  S
C811        H813   1.081       .  S
Cu815       N825   2.077   1_556  S
Cu816       N818   2.069       .  S
Cu816       N824   2.069       .  S
N817        N818   1.324       .  A
N817        C821   1.351       .  A
N818        C819   1.342       .  A
C819        C820   1.378       .  A
C819        H822   1.082       .  S
C820        C821   1.390       .  A
C820        C837   1.479       .  S
C821        H823   1.081       .  S
N824        C828   1.346       .  A
N825        C826   1.346   1_554  A
C826        C827   1.381   1_556  A
C826        H829   1.082       .  S
C827        C832   1.444       .  S
C828        H830   1.082       .  S
C831        C832   1.210       .  T
C833        H835   1.087       .  S
C833        C834   1.347       .  D
C837        C838   1.345       .  D
C838        H840   1.085       .  S
C841        H843   1.085       .  S
C841        C842   1.340       .  D
C842        H844   1.087       .  S
C845        H847   1.086       .  S
C845        C846   1.345       .  D
C846        H848   1.086       .  S
C849        C850   1.207       .  T
C851        C852   1.207       .  T
C853        C854   1.206       .  T
C855        C856   1.203       .  T
C857        H859   1.085       .  S
C857        C858   1.332   1_565  D
C861        H863   1.087       .  S
C861        C862   1.334       .  D
C865        H867   1.086       .  S
C865        C866   1.355       .  D
C866        H868   1.085       .  S
C869        H871   1.087       .  S
C869        C870   1.345       .  D
C870        H872   1.086       .  S
