geometry optimzed in LAMMPS
_audit_creation_date              2020-11-30 
_audit_creation_method            'lammps2cif' 
_symmetry_space_group_name_H-M    'P1' 
_symmetry_Int_Tables_number       1 
_symmetry_cell_setting            triclinic 
loop_ 
_symmetry_equiv_pos_as_xyz 
  x,y,z 
_cell_length_a                    45.18948123 
_cell_length_b                    45.155997449508334 
_cell_length_c                    33.432349378650706 
_cell_angle_alpha                 90.10072952172207 
_cell_angle_beta                  89.99166997100068 
_cell_angle_gamma                 121.7320769845548 
loop_ 
_atom_site_label 
_atom_site_type_symbol 
_atom_site_fract_x 
_atom_site_fract_y 
_atom_site_fract_z 
_atom_site_charge 
C1          C  0.33429089  0.16697015  0.71049523     0.45400
H2          H  0.33484682  0.16718843  0.67725231    -0.03600
C3          C  0.33347592  0.16676203  0.78841598     0.45500
H4          H  0.33321021  0.16661824  0.82164288    -0.03600
C5          C  0.35297177  0.20340360  0.72896428    -0.17300
C6          C  0.29750656  0.14854656  0.72836206    -0.17100
C7          C  0.35175701  0.14912515  0.72934576    -0.17400
C8          C  0.35234777  0.20345856  0.77005748    -0.17400
C9          C  0.29700252  0.14810464  0.76956712    -0.17000
C10         C  0.35142228  0.14896186  0.77033871    -0.17300
C11         C  0.16112378  0.33968691  0.28820547     0.45400
H12         H  0.16190426  0.34075455  0.32140854    -0.03600
C13         C  0.15945407  0.33695121  0.21037657     0.45500
H14         H  0.15886615  0.33587151  0.17714959    -0.03600
C15         C  0.19729669  0.35668480  0.26890119    -0.17300
C16         C  0.14070239  0.30245471  0.27135171    -0.17100
C17         C  0.14410678  0.35810747  0.26931297    -0.17400
C18         C  0.19630254  0.35524336  0.22784040    -0.17400
C19         C  0.14013685  0.30102841  0.23025619    -0.17000
C20         C  0.14302087  0.35636397  0.22819241    -0.17300
O21         O  0.42977338  0.49229709  0.05124220    -0.78500
C22         C  0.03584212  0.08131482  0.06476846     0.82500
O23         O  0.47365854  0.02792080  0.91719008    -0.79700
O24         O  0.08019648  0.04499166  0.97341131    -0.81100
O25         O  0.00365070  0.44392881  0.05339608    -0.80900
O26         O  0.42887388  0.44271863  0.05497497    -0.79600
Zn27       Zn  0.47239691  0.02509171  0.01887477     1.55700
O28         O  0.05421481  0.49459503  0.05417078    -0.81000
Cd29       Cd  0.47123948  0.45368774  0.02025821     1.59700
Cd30       Cd  0.49698535  0.00222509  0.93975545     1.59600
O31         O  0.45275590  0.41904363  0.97353051    -0.81000
O32         O  0.49618781  0.00243348  0.99976645    -1.91500
Cd33       Cd  0.04502472  0.02725799  0.02016253     1.59900
O34         O  0.46991984  0.45144364  0.91828807    -0.80900
O35         O  0.05497216  0.06951477  0.05480035    -0.79600
C36         C  0.45862686  0.04161125  0.93474630     0.83000
C37         C  0.41578390  0.46098699  0.06335095     0.82600
O38         O  0.00430010  0.06666089  0.05323021    -0.78500
C39         C  0.03542317  0.46260411  0.06395194     0.83400
O40         O  0.45651007  0.04184131  0.97273438    -0.78600
C41         C  0.45423244  0.42184867  0.93559764     0.83600
C42         C  0.07738049  0.04241924  0.93543183     0.83900
O43         O  0.04772595  0.02680139  0.91819349    -0.81000
O44         O  0.06442656  0.01340261  0.55096978    -0.78500
C45         C  0.45844977  0.42241835  0.56289513     0.82500
O46         O  0.02157420  0.47945789  0.41650932    -0.79700
O47         O  0.41299213  0.46186713  0.47484701    -0.81100
O48         O  0.49032905  0.06076254  0.55419904    -0.80900
O49         O  0.06566581  0.06320814  0.55324491    -0.79600
Zn50       Zn  0.02170538  0.48029887  0.51882227     1.55700
O51         O  0.44101282  0.00901587  0.55960104    -0.81000
Cd52       Cd  0.02234056  0.05144559  0.51998982     1.59700
Cd53       Cd  0.49627506  0.00307162  0.43999519     1.59600
O54         O  0.03859950  0.08611431  0.47365952    -0.81000
O55         O  0.49737598  0.00253353  0.50003695    -1.91500
Cd56       Cd  0.44868875  0.47724628  0.52128497     1.59900
O57         O  0.02034757  0.05381234  0.41833186    -0.80900
O58         O  0.43850373  0.43296653  0.55193961    -0.79600
C59         C  0.03658393  0.46563030  0.43380276     0.83000
C60         C  0.07869328  0.04500736  0.56219808     0.82600
O61         O  0.49056792  0.43858348  0.55351536    -0.78500
C62         C  0.45960203  0.04146166  0.56765272     0.83400
O63         O  0.03778653  0.46431555  0.47183130    -0.78600
C64         C  0.03559530  0.08339218  0.43579726     0.83600
C65         C  0.41573427  0.46325576  0.43679919     0.83900
O66         O  0.44527261  0.47714328  0.41951478    -0.81000
C67         C  0.09984403  0.16056522  0.12542312    -0.10900
C68         C  0.07941982  0.17420830  0.13685920     0.06200
C69         C  0.04439686  0.15678896  0.12485606    -0.09700
C70         C  0.03016761  0.12648570  0.10174254    -0.11300
C71         C  0.05067570  0.11297131  0.09004849    -0.01100
C72         C  0.08565573  0.13031181  0.10227474    -0.10200
C73         C  0.09473072  0.20661837  0.16100668     0.06300
H74         H  0.02790919  0.16643877  0.13364960     0.08200
H75         H  0.00309347  0.11370943  0.09295522     0.11700
H76         H  0.10221217  0.12068559  0.09369853     0.11900
H77         H  0.12703190  0.17365152  0.13379985     0.08200
C78         C  0.11752148  0.21227662  0.19276241    -0.10900
C79         C  0.13240682  0.24298977  0.21510075    -0.10200
C80         C  0.12452488  0.26849005  0.20642711    -0.01100
C81         C  0.10207629  0.26313342  0.17454553    -0.11300
C82         C  0.08714331  0.23237652  0.15213969    -0.09700
H83         H  0.12365624  0.19282836  0.20051163     0.08200
H84         H  0.15017497  0.24689084  0.23914965     0.11900
H85         H  0.09585669  0.28261864  0.16726325     0.11600
H86         H  0.07006641  0.22895897  0.12749326     0.08200
C87         C  0.33482701  0.44826748  0.11387968    -0.10900
C88         C  0.32085452  0.41533773  0.13157075     0.06200
C89         C  0.33845751  0.39754359  0.12677484    -0.09700
C90         C  0.36935594  0.41238083  0.10479173    -0.11300
C91         C  0.38336979  0.44539117  0.08721963    -0.01100
C92         C  0.36574258  0.46314661  0.09204230    -0.10200
C93         C  0.28831786  0.39992746  0.15539350     0.06300
H94         H  0.32860537  0.37234511  0.14051631     0.08200
H95         H  0.38234049  0.39805197  0.10172919     0.11700
H96         H  0.37565357  0.48847105  0.07861349     0.11900
H97         H  0.32161828  0.46240470  0.11653074     0.08200
C98         C  0.28253013  0.42092354  0.18135011    -0.10900
C99         C  0.25235157  0.40646278  0.20446144    -0.10200
C100        C  0.22740145  0.37079109  0.20198613    -0.01100
C101        C  0.23254279  0.34980390  0.17554246    -0.11300
C102        C  0.26291282  0.36419002  0.15261786    -0.09700
H103        H  0.30170927  0.44843996  0.18445755     0.08200
H104        H  0.24857357  0.42300149  0.22460515     0.11900
H105        H  0.21339551  0.32218373  0.17331794     0.11600
H106        H  0.26641924  0.34744689  0.13253314     0.08200
C107        C  0.13031445  0.40748785  0.14813596    -0.10900
C108        C  0.09619050  0.39920292  0.15585164     0.06200
C109        C  0.07709620  0.37556654  0.18661570    -0.09700
C110        C  0.09206932  0.36108599  0.20967433    -0.11300
C111        C  0.12642987  0.37017379  0.20255360    -0.01100
C112        C  0.14523910  0.39291307  0.17119271    -0.10200
C113        C  0.08066538  0.41543606  0.13223490     0.06300
H114        H  0.05085289  0.36885646  0.19340805     0.08200
H115        H  0.07701797  0.34313114  0.23344718     0.11700
H116        H  0.17172562  0.39997262  0.16517368     0.11900
H117        H  0.14541986  0.42518172  0.12420528     0.08200
C118        C  0.10043893  0.45099773  0.12255593    -0.10900
C119        C  0.08573212  0.46638741  0.10059437    -0.10200
C120        C  0.05092237  0.44652735  0.08782979    -0.01100
C121        C  0.03115811  0.41094401  0.09757616    -0.11300
C122        C  0.04586994  0.39558614  0.11954522    -0.09700
H123        H  0.12718251  0.46703903  0.13243416     0.08200
H124        H  0.10165486  0.49386408  0.09365604     0.11900
H125        H  0.00432199  0.39484167  0.08804018     0.11600
H126        H  0.03012878  0.36803414  0.12617599     0.08200
C127        C  0.08276277  0.17903605  0.40915216    -0.10900
C128        C  0.07723542  0.17793359  0.36773713     0.06200
C129        C  0.05769660  0.14537769  0.34867033    -0.09700
C130        C  0.04427469  0.11454891  0.37057609    -0.11300
C131        C  0.05003222  0.11571575  0.41200267    -0.01100
C132        C  0.06931900  0.14832655  0.43101765    -0.10200
C133        C  0.09260940  0.21066927  0.34444201     0.06300
H134        H  0.05334297  0.14374732  0.31667600     0.08200
H135        H  0.02940990  0.08986053  0.35509492     0.11700
H136        H  0.07411612  0.15021432  0.46292896     0.11900
H137        H  0.09730169  0.20370425  0.42474900     0.08200
C138        C  0.07363506  0.21439390  0.31366997    -0.10900
C139        C  0.08882635  0.24469194  0.29066804    -0.10200
C140        C  0.12338186  0.27155719  0.29768635    -0.01100
C141        C  0.14192828  0.26847774  0.32927959    -0.11300
C142        C  0.12673006  0.23826300  0.35240236    -0.09700
H143        H  0.04707045  0.19388481  0.30741412     0.08200
H144        H  0.07378190  0.24697244  0.26699798     0.11900
H145        H  0.16860134  0.28895068  0.33516517     0.11600
H146        H  0.14208422  0.23605507  0.37572402     0.08200
C147        C  0.35564002  0.43390123  0.34658596    -0.10900
C148        C  0.32281674  0.41941633  0.36462298     0.06200
C149        C  0.32073644  0.41980101  0.40652222    -0.09700
C150        C  0.35084514  0.43400246  0.42995277    -0.11300
C151        C  0.38375111  0.44837021  0.41197053    -0.01100
C152        C  0.38578459  0.44835115  0.36997143    -0.10200
C153        C  0.29079233  0.40352378  0.33985608     0.06300
H154        H  0.29572399  0.40853308  0.42119293     0.08200
H155        H  0.34829430  0.43360588  0.46218156     0.11700
H156        H  0.41067723  0.45935518  0.35510194     0.11900
H157        H  0.35799248  0.43427493  0.31432060     0.08200
C158        C  0.26455894  0.41057083  0.34787507    -0.10900
C159        C  0.23425258  0.39531037  0.32473260    -0.10200
C160        C  0.22960706  0.37271922  0.29320026    -0.01100
C161        C  0.25557673  0.36526114  0.28548675    -0.11300
C162        C  0.28602178  0.38075567  0.30836327    -0.09700
H163        H  0.26769923  0.42822596  0.37178240     0.08200
H164        H  0.21458616  0.40147499  0.33113902     0.11900
H165        H  0.25217775  0.34716723  0.26201234     0.11600
H166        H  0.30556348  0.37442826  0.30197081     0.08200
C167        C  0.09647468  0.37460961  0.35109835    -0.10900
C168        C  0.10190211  0.40716135  0.34021841     0.06200
C169        C  0.12246713  0.42421931  0.30653829    -0.09700
C170        C  0.13695607  0.40881521  0.28398727    -0.11300
C171        C  0.13042600  0.37568302  0.29410181    -0.01100
C172        C  0.11053875  0.35901880  0.32822885    -0.10200
C173        C  0.08587040  0.42298339  0.36390126     0.06300
H174        H  0.12759267  0.44960357  0.29790852     0.08200
H175        H  0.15313999  0.42273684  0.25853934     0.11700
H176        H  0.10514796  0.33350170  0.33668473     0.11900
H177        H  0.08058337  0.36078695  0.37678422     0.08200
C178        C  0.06883761  0.43768254  0.34487120    -0.10900
C179        C  0.05266306  0.45142634  0.36741868    -0.10200
C180        C  0.05340172  0.45095083  0.40947574    -0.01100
C181        C  0.07080982  0.43655059  0.42836295    -0.11300
C182        C  0.08676990  0.42269191  0.40585875    -0.09700
H183        H  0.06747572  0.43794013  0.31254108     0.08200
H184        H  0.03950419  0.46231468  0.35190743     0.11900
H185        H  0.07213461  0.43594064  0.46066829     0.11600
H186        H  0.10005098  0.41189708  0.42130446     0.08200
C187        C  0.40593729  0.08160917  0.90621795    -0.10900
C188        C  0.41298313  0.08785720  0.86514084     0.06200
C189        C  0.43525257  0.07876553  0.84708053    -0.09700
C190        C  0.45004629  0.06368549  0.86957328    -0.11300
C191        C  0.44304688  0.05754183  0.91067582    -0.01100
C192        C  0.42085857  0.06672198  0.92873448    -0.10200
C193        C  0.39729423  0.10394036  0.84128575     0.06300
H194        H  0.44088578  0.08288196  0.81539613     0.08200
H195        H  0.46704865  0.05694760  0.85478564     0.11700
H196        H  0.41487864  0.06229316  0.96032976     0.11900
H197        H  0.38926667  0.08870746  0.92113021     0.08200
C198        C  0.36259858  0.09449292  0.84765313    -0.10900
C199        C  0.34787829  0.10953959  0.82495364    -0.10200
C200        C  0.36745715  0.13400740  0.79528486    -0.01100
C201        C  0.40223960  0.14398712  0.78935911    -0.11300
C202        C  0.41699650  0.12903940  0.81202392    -0.09700
H203        H  0.34663272  0.07501131  0.86970315     0.08200
H204        H  0.32099713  0.10156529  0.82994920     0.11900
H205        H  0.41808959  0.16355674  0.76733969     0.11600
H206        H  0.44397396  0.13745810  0.80699846     0.08200
C207        C  0.37234517  0.29105708  0.80820070    -0.10900
C208        C  0.39269633  0.29560299  0.84199390     0.06200
C209        C  0.39893079  0.26927616  0.85269475    -0.09700
C210        C  0.38576175  0.23927097  0.82926257    -0.11300
C211        C  0.36608756  0.23514773  0.79496231    -0.01100
C212        C  0.35877494  0.26088405  0.78520231    -0.10200
C213        C  0.40759779  0.32790259  0.86580020     0.06300
H214        H  0.41461302  0.27228607  0.87866835     0.08200
H215        H  0.39142225  0.21957231  0.83751608     0.11700
H216        H  0.34229062  0.25757048  0.75999840     0.11900
H217        H  0.36658199  0.31067806  0.79991362     0.08200
C218        C  0.42495509  0.36049303  0.84683142    -0.10900
C219        C  0.43986491  0.39111121  0.86938627    -0.10200
C220        C  0.43748996  0.38963430  0.91131919    -0.01100
C221        C  0.41950543  0.35689822  0.93013818    -0.11300
C222        C  0.40482568  0.32635082  0.90759530    -0.09700
H223        H  0.42756461  0.36225098  0.81457813     0.08200
H224        H  0.45355390  0.41588850  0.85401160     0.11900
H225        H  0.41698284  0.35481341  0.96237867     0.11600
H226        H  0.39116016  0.30147396  0.92278754     0.08200
C227        C  0.17284318  0.09032801  0.90667314    -0.10900
C228        C  0.17119194  0.08701604  0.86482494     0.06200
C229        C  0.13835752  0.06900335  0.84623662    -0.09700
C230        C  0.10787295  0.05465305  0.86902334    -0.11300
C231        C  0.10954977  0.05790488  0.91093234    -0.01100
C232        C  0.14242972  0.07592738  0.92944090    -0.10200
C233        C  0.20363394  0.10232561  0.84074539     0.06300
H234        H  0.13624722  0.06637321  0.81400029     0.08200
H235        H  0.08300687  0.04098629  0.85378699     0.11700
H236        H  0.14474095  0.07885828  0.96163942     0.11900
H237        H  0.19771033  0.10365246  0.92192300     0.08200
C238        C  0.23243655  0.13541546  0.85016856    -0.10900
C239        C  0.26281253  0.14999216  0.82726921    -0.10200
C240        C  0.26500844  0.13182885  0.79446761    -0.01100
C241        C  0.23663954  0.09840234  0.78561988    -0.11300
C242        C  0.20614170  0.08392127  0.80828488    -0.09700
H243        H  0.23122878  0.15036713  0.87478367     0.08200
H244        H  0.28433341  0.17582527  0.83464187     0.11900
H245        H  0.23804386  0.08349995  0.76107498     0.11600
H246        H  0.18467674  0.05812232  0.80075859     0.08200
C247        C  0.41427087  0.14072163  0.66289868    -0.10900
C248        C  0.39917169  0.10431988  0.66142723     0.06200
C249        C  0.36764184  0.08295634  0.68194957    -0.09700
C250        C  0.35214687  0.09755469  0.70390733    -0.11300
C251        C  0.36734435  0.13366826  0.70495547    -0.01100
C252        C  0.39816388  0.15518526  0.68396329    -0.10200
C253        C  0.41581958  0.08865104  0.63821205     0.06300
H254        H  0.35458172  0.05488045  0.68078932     0.08200
H255        H  0.32817703  0.08069959  0.71995129     0.11700
H256        H  0.41027080  0.18322198  0.68494708     0.11900
H257        H  0.43883069  0.15820621  0.64837598     0.08200
C258        C  0.43549519  0.10515939  0.60369990    -0.10900
C259        C  0.45036490  0.09008298  0.58144857    -0.10200
C260        C  0.44501468  0.05766285  0.59241600    -0.01100
C261        C  0.42555341  0.04101831  0.62669157    -0.11300
C262        C  0.41161472  0.05662289  0.64978416    -0.09700
H263        H  0.43883073  0.12937151  0.59312467     0.08200
H264        H  0.46517307  0.10324224  0.55487833     0.11900
H265        H  0.42158649  0.01618517  0.63592446     0.11600
H266        H  0.39764356  0.04353037  0.67673835     0.08200
C267        C  0.42050851  0.28832791  0.68074938    -0.10900
C268        C  0.39967588  0.29588645  0.65663153     0.06200
C269        C  0.36339631  0.27206660  0.65642546    -0.09700
C270        C  0.34853995  0.24164475  0.67916062    -0.11300
C271        C  0.36935028  0.23491504  0.70373974    -0.01100
C272        C  0.40540426  0.25832872  0.70444945    -0.10200
C273        C  0.41540978  0.32842552  0.63212353     0.06300
H274        H  0.34617473  0.27707439  0.63934938     0.08200
H275        H  0.32058530  0.22381067  0.67856597     0.11700
H276        H  0.42181558  0.25319323  0.72308089     0.11900
H277        H  0.44851908  0.30533706  0.68119534     0.08200
C278        C  0.44625865  0.35898798  0.64437281    -0.10900
C279        C  0.46059403  0.38942395  0.62151183    -0.10200
C280        C  0.44383590  0.39032652  0.58668035    -0.01100
C281        C  0.41308002  0.36021333  0.57440363    -0.07700
C282        C  0.39936825  0.32945466  0.59640528    -0.09700
H283        H  0.45913222  0.35976062  0.67196744     0.08200
H284        H  0.48432388  0.41254639  0.63155294     0.11900
H285        H  0.40005317  0.36029787  0.54723352     0.11600
H286        H  0.37631152  0.30646099  0.58503115     0.08200
C287        C  0.15762316  0.05705683  0.61734683    -0.10900
C288        C  0.17375975  0.09176866  0.63047465     0.06200
C289        C  0.15829702  0.11094255  0.62097828    -0.09700
C290        C  0.12739861  0.09574308  0.59897012    -0.11300
C291        C  0.11126125  0.06101794  0.58588213    -0.01100
C292        C  0.12676597  0.04187297  0.59528295    -0.10200
C293        C  0.20625079  0.10763860  0.65453065     0.06300
H294        H  0.17029065  0.13787307  0.63016893     0.08200
H295        H  0.11622920  0.11127827  0.59210729     0.11700
H296        H  0.11501870  0.01506373  0.58568906     0.11900
H297        H  0.16853919  0.04138677  0.62468910     0.08200
C298        C  0.21139640  0.12995489  0.68672958    -0.10900
C299        C  0.24133734  0.14382276  0.71025618    -0.10200
C300        C  0.26639479  0.13513748  0.70253857    -0.01100
C301        C  0.26193544  0.11380538  0.66974878    -0.11300
C302        C  0.23211742  0.10012278  0.64597501    -0.09700
H303        H  0.19195417  0.13613853  0.69429955     0.08200
H304        H  0.24474512  0.16102676  0.73480729     0.11900
H305        H  0.28122388  0.10718717  0.66301087     0.11600
H306        H  0.22931115  0.08364671  0.62088028     0.08200
C307        C  0.33429132  0.66696942  0.71049508     0.45400
H308        H  0.33484802  0.66718756  0.67725222    -0.03600
C309        C  0.33347453  0.66676130  0.78841581     0.45500
H310        H  0.33320800  0.66661738  0.82164270    -0.03600
C311        C  0.35297189  0.70340294  0.72896413    -0.17300
C312        C  0.29750659  0.64854583  0.72836080    -0.17100
C313        C  0.35175721  0.64912472  0.72934676    -0.17400
C314        C  0.35234682  0.70345780  0.77005733    -0.17400
C315        C  0.29700165  0.64810411  0.76956581    -0.17000
C316        C  0.35142126  0.64896119  0.77033961    -0.17300
C317        C  0.16112519  0.83968776  0.28820634     0.45400
H318        H  0.16190604  0.84075543  0.32140942    -0.03600
C319        C  0.15945446  0.83695152  0.21037750     0.45500
H320        H  0.15886619  0.83587174  0.17715052    -0.03600
C321        C  0.19729783  0.85668545  0.26890150    -0.17300
C322        C  0.14070347  0.80245559  0.27135290    -0.17100
C323        C  0.14410799  0.85810821  0.26931421    -0.17400
C324        C  0.19630313  0.85524380  0.22784073    -0.17400
C325        C  0.14013740  0.80102882  0.23025741    -0.17000
C326        C  0.14302152  0.85636437  0.22819366    -0.17300
O327        O  0.42977326  0.99229792  0.05124104    -0.78500
C328        C  0.03584157  0.58131538  0.06476875     0.82500
O329        O  0.47365682  0.52792066  0.91719076    -0.79700
O330        O  0.08019674  0.54499430  0.97341072    -0.81100
O331        O  0.00364988  0.94392786  0.05339759    -0.80900
O332        O  0.42887403  0.94271964  0.05497612    -0.79600
Zn333      Zn  0.47239626  0.52509149  0.01887530     1.55700
O334        O  0.05421397  0.99459402  0.05417274    -0.81000
Cd335      Cd  0.47123885  0.95368704  0.02025912     1.59700
Cd336      Cd  0.49698558  0.50222664  0.93975515     1.59600
O337        O  0.45275384  0.91904222  0.97353201    -0.81000
O338        O  0.49618791  0.50243436  0.99976614    -1.91500
Cd339      Cd  0.04502496  0.52725932  0.02016211     1.59900
O340        O  0.46991737  0.95144181  0.91828926    -0.80900
O341        O  0.05497167  0.56951532  0.05480095    -0.79600
C342        C  0.45862422  0.54160996  0.93474746     0.83000
C343        C  0.41578392  0.96098813  0.06335086     0.82600
O344        O  0.00429963  0.56666149  0.05323021    -0.78500
C345        C  0.03542217  0.96260315  0.06395407     0.83400
O346        O  0.45650762  0.54183976  0.97273555    -0.78600
C347        C  0.45422957  0.92184696  0.93559910     0.83600
C348        C  0.07738049  0.54242247  0.93543122     0.83900
O349        O  0.04772585  0.52680454  0.91819318    -0.81000
O350        O  0.06442651  0.51340272  0.55096832    -0.78500
C351        C  0.45845095  0.92241730  0.56289638     0.82500
O352        O  0.02157411  0.97945638  0.41651123    -0.79700
O353        O  0.41299191  0.96186539  0.47484877    -0.81100
O354        O  0.49033050  0.56076427  0.55419820    -0.80900
O355        O  0.06566661  0.56320867  0.55324314    -0.79600
Zn356      Zn  0.02170570  0.98029829  0.51882389     1.55700
O357        O  0.44101343  0.50901821  0.55959865    -0.81000
Cd358      Cd  0.02234141  0.55144660  0.51998855     1.59700
Cd359      Cd  0.49627504  0.50307288  0.43999380     1.59600
O360        O  0.03860044  0.58611498  0.47365832    -0.81000
O361        O  0.49737621  0.50253464  0.50003558    -1.91500
Cd362      Cd  0.44868852  0.97724438  0.52128675     1.59900
O363        O  0.02034688  0.55381324  0.41833053    -0.80900
O364        O  0.43850417  0.93296452  0.55194070    -0.79600
C365        C  0.03658407  0.96562913  0.43380487     0.83000
C366        C  0.07869373  0.54500759  0.56219635     0.82600
O367        O  0.49056919  0.93858323  0.55351713    -0.78500
C368        C  0.45960316  0.54146381  0.56765114     0.83400
O369        O  0.03778698  0.96431488  0.47183340    -0.78600
C370        C  0.03559543  0.58339298  0.43579617     0.83600
C371        C  0.41573421  0.96325444  0.43680096     0.83900
O372        O  0.44527260  0.97714219  0.41951663    -0.81000
C373        C  0.09984144  0.66056216  0.12542970    -0.10900
C374        C  0.07941866  0.67420826  0.13686047     0.06200
C375        C  0.04439733  0.65679220  0.12485135    -0.09700
C376        C  0.03016827  0.62648918  0.10173747    -0.11300
C377        C  0.05067495  0.61297175  0.09004891    -0.01100
C378        C  0.08565333  0.63030900  0.10228092    -0.10200
C379        C  0.09472956  0.70661821  0.16100831     0.06300
H380        H  0.02791063  0.66644434  0.13364049     0.08200
H381        H  0.00309546  0.61371554  0.09294541     0.11700
H382        H  0.10220868  0.62068033  0.09370909     0.11900
H383        H  0.12702814  0.67364590  0.13381082     0.08200
C384        C  0.11751726  0.71227453  0.19276682    -0.10900
C385        C  0.13240324  0.74298783  0.21510492    -0.10200
C386        C  0.12452461  0.76849011  0.20642870    -0.01100
C387        C  0.10207886  0.76313523  0.17454457    -0.11300
C388        C  0.08714560  0.73237838  0.15213861    -0.09700
H389        H  0.12364938  0.69282477  0.20051826     0.08200
H390        H  0.15016939  0.74688744  0.23915555     0.11900
H391        H  0.09586169  0.78262187  0.16726019     0.11600
H392        H  0.07007127  0.72896250  0.12748998     0.08200
C393        C  0.33482548  0.94826782  0.11387640    -0.10900
C394        C  0.32085455  0.91533940  0.13157043     0.06200
C395        C  0.33845920  0.89754661  0.12677775    -0.09700
C396        C  0.36935757  0.91238374  0.10479473    -0.11300
C397        C  0.38336982  0.94539264  0.08721944    -0.01100
C398        C  0.36574108  0.96314688  0.09203905    -0.10200
C399        C  0.28831780  0.89992897  0.15539293     0.06300
H400        H  0.32860832  0.87234925  0.14052171     0.08200
H401        H  0.38234346  0.89805590  0.10173483     0.11700
H402        H  0.37565091  0.98847025  0.07860786     0.11900
H403        H  0.32161548  0.96240397  0.11652515     0.08200
C404        C  0.28252871  0.92092526  0.18134755    -0.10900
C405        C  0.25235023  0.90646410  0.20445917    -0.10200
C406        C  0.22740165  0.87079186  0.20198594    -0.01100
C407        C  0.23254430  0.84980444  0.17554415    -0.11300
C408        C  0.26291422  0.86419098  0.15261933    -0.09700
H409        H  0.30170678  0.94844213  0.18445333     0.08200
H410        H  0.24857115  0.92300287  0.22460153     0.11900
H411        H  0.21339822  0.82218385  0.17332137     0.11600
H412        H  0.26642175  0.84744771  0.13253613     0.08200
C413        C  0.13031443  0.90748907  0.14813919    -0.10900
C414        C  0.09618984  0.89920245  0.15585409     0.06200
C415        C  0.07709527  0.87556453  0.18661683    -0.09700
C416        C  0.09206890  0.86108429  0.20967516    -0.11300
C417        C  0.12643001  0.87017373  0.20255515    -0.01100
C418        C  0.14523949  0.89291442  0.17119546    -0.10200
C419        C  0.08066436  0.91543549  0.13223790     0.06300
H420        H  0.05085145  0.86885312  0.19340838     0.08200
H421        H  0.07701752  0.84312843  0.23344725     0.11700
H422        H  0.17172646  0.89997526  0.16517713     0.11900
H423        H  0.14542003  0.92518419  0.12420959     0.08200
C424        C  0.10043684  0.95099788  0.12256207    -0.10900
C425        C  0.08572990  0.96638738  0.10060043    -0.10200
C426        C  0.05092114  0.94652651  0.08783266    -0.01100
C427        C  0.03115783  0.91094249  0.09757620    -0.11300
C428        C  0.04586983  0.89558476  0.11954529    -0.09700
H429        H  0.12717965  0.96703975  0.13244262     0.08200
H430        H  0.10165189  0.99386460  0.09366438     0.11900
H431        H  0.00432253  0.89483953  0.08803772     0.11600
H432        H  0.03012957  0.86803220  0.12617371     0.08200
C433        C  0.08276500  0.67903691  0.40915224    -0.10900
C434        C  0.07723494  0.67793494  0.36773788     0.06200
C435        C  0.05769369  0.64537934  0.34867104    -0.09700
C436        C  0.04427208  0.61455030  0.37057614    -0.11300
C437        C  0.05003228  0.61571665  0.41200204    -0.01100
C438        C  0.06932151  0.64832719  0.43101708    -0.10200
C439        C  0.09260919  0.71067080  0.34444330     0.06300
H440        H  0.05333802  0.64374940  0.31667712     0.08200
H441        H  0.02940530  0.58986208  0.35509500     0.11700
H442        H  0.07412079  0.65021456  0.46292788     0.11900
H443        H  0.09730596  0.70370494  0.42474911     0.08200
C444        C  0.07363409  0.71439719  0.31367367    -0.10900
C445        C  0.08882591  0.74469519  0.29067175    -0.10200
C446        C  0.12338255  0.77155861  0.29768793    -0.01100
C447        C  0.14192979  0.76847760  0.32927899    -0.11300
C448        C  0.12673115  0.73826280  0.35240154    -0.09700
H449        H  0.04706852  0.69388935  0.30741948     0.08200
H450        H  0.07378115  0.74697703  0.26700309     0.11900
H451        H  0.16860374  0.78894921  0.33516278     0.11600
H452        H  0.14208587  0.73605338  0.37572124     0.08200
C453        C  0.35564102  0.93390421  0.34658712    -0.10900
C454        C  0.32281736  0.91941631  0.36462395     0.06200
C455        C  0.32073637  0.91979748  0.40652333    -0.09700
C456        C  0.35084485  0.93399843  0.42995419    -0.11300
C457        C  0.38375122  0.94836924  0.41197211    -0.01100
C458        C  0.38578533  0.94835368  0.36997292    -0.10200
C459        C  0.29079330  0.90352424  0.33985662     0.06300
H460        H  0.29572360  0.90852719  0.42119378     0.08200
H461        H  0.34829354  0.93359906  0.46218307     0.11700
H462        H  0.41067833  0.95936020  0.35510355     0.11900
H463        H  0.35799395  0.93428056  0.31432168     0.08200
C464        C  0.26455914  0.91056989  0.34787690    -0.10900
C465        C  0.23425304  0.89530978  0.32473401    -0.10200
C466        C  0.22960843  0.87272021  0.29320020    -0.01100
C467        C  0.25557897  0.86526361  0.28548538    -0.11300
C468        C  0.28602388  0.88075801  0.30836212    -0.09700
H469        H  0.26769863  0.92822358  0.37178554     0.08200
H470        H  0.21458600  0.90147335  0.33114147     0.11900
H471        H  0.25218074  0.84717078  0.26200998     0.11600
H472        H  0.30556632  0.87443181  0.30196860     0.08200
C473        C  0.09647768  0.87461046  0.35110172    -0.10900
C474        C  0.10190352  0.90716142  0.34022113     0.06200
C475        C  0.12246704  0.92421896  0.30653994    -0.09700
C476        C  0.13695585  0.90881511  0.28398830    -0.11300
C477        C  0.13042723  0.87568357  0.29410341    -0.01100
C478        C  0.11054163  0.85901985  0.32823164    -0.10200
C479        C  0.08587133  0.92298290  0.36390400     0.06300
H480        H  0.12759143  0.94960274  0.29790971     0.08200
H481        H  0.15313858  0.92273650  0.25853952     0.11700
H482        H  0.10515199  0.83350329  0.33668797     0.11900
H483        H  0.08058758  0.86078815  0.37678848     0.08200
C484        C  0.06883673  0.93768009  0.34487384    -0.10900
C485        C  0.05266184  0.95142355  0.36742115    -0.10200
C486        C  0.05340191  0.95094960  0.40947817    -0.01100
C487        C  0.07081161  0.93655114  0.42836555    -0.11300
C488        C  0.08677208  0.92269277  0.40586150    -0.09700
H489        H  0.06747373  0.93793644  0.31254375     0.08200
H490        H  0.03950168  0.96231043  0.35190980     0.11900
H491        H  0.07213748  0.93594247  0.46067091     0.11600
H492        H  0.10005438  0.91189932  0.42130721     0.08200
C493        C  0.40593111  0.58160421  0.90621986    -0.10900
C494        C  0.41297957  0.58785560  0.86514356     0.06200
C495        C  0.43525108  0.57876661  0.84708344    -0.09700
C496        C  0.45004476  0.56368631  0.86957565    -0.11300
C497        C  0.44304331  0.55753981  0.91067748    -0.01100
C498        C  0.42085255  0.56671688  0.92873593    -0.10200
C499        C  0.39729135  0.60393954  0.84128886     0.06300
H500        H  0.44088608  0.58288549  0.81539960     0.08200
H501        H  0.46704896  0.55695071  0.85478817     0.11700
H502        H  0.41487094  0.56228566  0.96033070     0.11900
H503        H  0.38925858  0.58870011  0.92113178     0.08200
C504        C  0.36259448  0.59448936  0.84765245    -0.10900
C505        C  0.34787464  0.60953605  0.82495221    -0.10200
C506        C  0.36745534  0.63400666  0.79528664    -0.01100
C507        C  0.40223901  0.64398933  0.78936495    -0.11300
C508        C  0.41699545  0.62904159  0.81203051    -0.09700
H509        H  0.34662738  0.57500553  0.86969985     0.08200
H510        H  0.32099253  0.60155964  0.82994461     0.11900
H511        H  0.41809019  0.66356115  0.76734819     0.11600
H512        H  0.44397379  0.63746237  0.80700816     0.08200
C513        C  0.37234057  0.79105509  0.80820047    -0.10900
C514        C  0.39269048  0.79560098  0.84199503     0.06200
C515        C  0.39892538  0.76927451  0.85269628    -0.09700
C516        C  0.38575789  0.73926977  0.82926373    -0.11300
C517        C  0.36608510  0.73514667  0.79496226    -0.01100
C518        C  0.35877226  0.76088264  0.78520127    -0.10200
C519        C  0.40759128  0.82790058  0.86580157     0.06300
H520        H  0.41460702  0.77228440  0.87867052     0.08200
H521        H  0.39141865  0.71957143  0.83751784     0.11700
H522        H  0.34228947  0.75756928  0.75999569     0.11900
H523        H  0.36657712  0.81067574  0.79991271     0.08200
C524        C  0.42494566  0.86049105  0.84683275    -0.10900
C525        C  0.43985645  0.89110924  0.86938764    -0.10200
C526        C  0.43748563  0.88963243  0.91132085    -0.01100
C527        C  0.41950378  0.85689639  0.93014009    -0.11300
C528        C  0.40482290  0.82634896  0.90759709    -0.09700
H529        H  0.42755264  0.86224915  0.81457919     0.08200
H530        H  0.45354313  0.91588649  0.85401274     0.11900
H531        H  0.41698435  0.85481162  0.96238083     0.11600
H532        H  0.39115971  0.80147221  0.92278969     0.08200
C533        C  0.17284282  0.59033167  0.90667102    -0.10900
C534        C  0.17119105  0.58701949  0.86482284     0.06200
C535        C  0.13835645  0.56900703  0.84623501    -0.09700
C536        C  0.10787219  0.55465689  0.86902220    -0.11300
C537        C  0.10954951  0.55790859  0.91093123    -0.01100
C538        C  0.14242966  0.57593110  0.92943928    -0.10200
C539        C  0.20363268  0.60232831  0.84074287     0.06300
H540        H  0.13624582  0.56637683  0.81399864     0.08200
H541        H  0.08300592  0.54099014  0.85378622     0.11700
H542        H  0.14474126  0.57886194  0.96163780     0.11900
H543        H  0.19771022  0.60365612  0.92192043     0.08200
C544        C  0.23243541  0.63541835  0.85016502    -0.10900
C545        C  0.26281130  0.64999410  0.82726572    -0.10200
C546        C  0.26500715  0.63182957  0.79446543    -0.01100
C547        C  0.23663793  0.59840305  0.78561836    -0.11300
C548        C  0.20614007  0.58392299  0.80828321    -0.09700
H549        H  0.23122783  0.65037076  0.87477937     0.08200
H550        H  0.28433237  0.67582738  0.83463761     0.11900
H551        H  0.23804210  0.58349986  0.76107436     0.11600
H552        H  0.18467481  0.55812394  0.80075763     0.08200
C553        C  0.41427707  0.64072329  0.66290828    -0.10900
C554        C  0.39917348  0.60432119  0.66142826     0.06200
C555        C  0.36763922  0.58295698  0.68194244    -0.09700
C556        C  0.35214415  0.59755493  0.70390080    -0.11300
C557        C  0.36734600  0.63366884  0.70495742    -0.01100
C558        C  0.39817009  0.65518675  0.68397331    -0.10200
C559        C  0.41582133  0.58865265  0.63821259     0.06300
H560        H  0.35457581  0.55488108  0.68077519     0.08200
H561        H  0.32817066  0.58069923  0.71993826     0.11700
H562        H  0.41028008  0.68322363  0.68496346     0.11900
H563        H  0.43884009  0.65820810  0.64839186     0.08200
C564        C  0.43550334  0.60516522  0.60370553    -0.10900
C565        C  0.45037277  0.59008887  0.58145350    -0.10200
C566        C  0.44501619  0.55766501  0.59241517    -0.01100
C567        C  0.42554865  0.54101649  0.62668579    -0.11300
C568        C  0.41160999  0.55662060  0.64977908    -0.09700
H569        H  0.43884416  0.62938070  0.59313475     0.08200
H570        H  0.46518580  0.60325133  0.55488707     0.11900
H571        H  0.42157665  0.51618030  0.63591434     0.11600
H572        H  0.39763369  0.54352461  0.67672948     0.08200
C573        C  0.42050965  0.78833260  0.68075976    -0.10900
C574        C  0.39967879  0.79588527  0.65663053     0.06200
C575        C  0.36340042  0.77205996  0.65641318    -0.09700
C576        C  0.34854345  0.74163857  0.67914919    -0.11300
C577        C  0.36935161  0.73491438  0.70373948    -0.01100
C578        C  0.40540451  0.75833345  0.70445990    -0.10200
C579        C  0.41541306  0.82842431  0.63212287     0.06300
H580        H  0.34618015  0.77706330  0.63932758     0.08200
H581        H  0.32058959  0.72380032  0.67854604     0.11700
H582        H  0.42181434  0.75320234  0.72310001     0.11900
H583        H  0.44851958  0.80534655  0.68121468     0.08200
C584        C  0.44625290  0.85899128  0.64438224    -0.10900
C585        C  0.46058787  0.88942765  0.62152207    -0.10200
C586        C  0.44383784  0.89032545  0.58668090    -0.01100
C587        C  0.41309110  0.86020758  0.57439369    -0.07700
C588        C  0.39938012  0.82944889  0.59639517    -0.09700
H589        H  0.45911927  0.85976690  0.67198410     0.08200
H590        H  0.48431064  0.91255379  0.63157085     0.11900
H591        H  0.40007105  0.86028881  0.54721610     0.11600
H592        H  0.37633073  0.80645177  0.58501406     0.08200
C593        C  0.15762276  0.55705614  0.61734641    -0.10900
C594        C  0.17376070  0.59176865  0.63047206     0.06200
C595        C  0.15829916  0.61094332  0.62097381    -0.09700
C596        C  0.12740061  0.59574388  0.59896593    -0.11300
C597        C  0.11126189  0.56101806  0.58588007    -0.01100
C598        C  0.12676540  0.54187231  0.59528280    -0.10200
C599        C  0.20625174  0.60763855  0.65452806     0.06300
H600        H  0.17029375  0.63787427  0.63016283     0.08200
H601        H  0.11623213  0.61127970  0.59210167     0.11700
H602        H  0.11501703  0.51506251  0.58569068     0.11900
H603        H  0.16853785  0.54138549  0.62469023     0.08200
C604        C  0.21139824  0.62995647  0.68672549    -0.10900
C605        C  0.24133891  0.64382405  0.71025242    -0.10200
C606        C  0.26639537  0.63513713  0.70253654    -0.01100
C607        C  0.26193537  0.61380362  0.66974800    -0.11300
C608        C  0.23211744  0.60012103  0.64597404    -0.09700
H609        H  0.19195676  0.63614152  0.69429419     0.08200
H610        H  0.24474727  0.66102914  0.73480259     0.11900
H611        H  0.28122318  0.60718423  0.66301136     0.11600
H612        H  0.22931046  0.58364364  0.62088044     0.08200
C613        C  0.83429146  0.16697033  0.71049508     0.45400
H614        H  0.83484755  0.16718872  0.67725220    -0.03600
C615        C  0.83347601  0.16676203  0.78841585     0.45500
H616        H  0.83321012  0.16661816  0.82164274    -0.03600
C617        C  0.85297242  0.20340375  0.72896426    -0.17300
C618        C  0.79750699  0.14854692  0.72836167    -0.17100
C619        C  0.85175726  0.14912502  0.72934578    -0.17400
C620        C  0.85234819  0.20345861  0.77005746    -0.17400
C621        C  0.79700273  0.14810493  0.76956674    -0.17000
C622        C  0.85142224  0.14896168  0.77033873    -0.17300
C623        C  0.66112324  0.33968699  0.28820632     0.45400
H624        H  0.66190356  0.34075469  0.32140939    -0.03600
C625        C  0.65945398  0.33695123  0.21037743     0.45500
H626        H  0.65886621  0.33587149  0.17715048    -0.03600
C627        C  0.69729621  0.35668457  0.26890233    -0.17300
C628        C  0.64070176  0.30245480  0.27135265    -0.17100
C629        C  0.64410654  0.35810773  0.26931349    -0.17400
C630        C  0.69630235  0.35524320  0.22784155    -0.17400
C631        C  0.64013642  0.30102842  0.23025713    -0.17000
C632        C  0.64302090  0.35636424  0.22819291    -0.17300
O633        O  0.92977336  0.49229715  0.05124312    -0.78500
C634        C  0.53584199  0.08131498  0.06476869     0.82500
O635        O  0.97365858  0.02792089  0.91719031    -0.79700
O636        O  0.58019675  0.04499270  0.97341118    -0.81100
O637        O  0.50365153  0.44392956  0.05339573    -0.80900
O638        O  0.92887336  0.44271838  0.05497498    -0.79600
Zn639      Zn  0.97239676  0.02509142  0.01887502     1.55700
O640        O  0.55421561  0.49459583  0.05417012    -0.81000
Cd641      Cd  0.97123904  0.45368744  0.02025847     1.59700
Cd642      Cd  0.99698521  0.00222501  0.93975550     1.59600
O643        O  0.95275558  0.41904344  0.97353078    -0.81000
O644        O  0.99618761  0.00243322  0.99976650    -1.91500
Cd645      Cd  0.54502494  0.02725842  0.02016248     1.59900
O646        O  0.96991932  0.45144348  0.91828839    -0.80900
O647        O  0.55497200  0.06951479  0.05480093    -0.79600
C648        C  0.95862694  0.04161136  0.93474663     0.83000
C649        C  0.91578364  0.46098688  0.06335144     0.82600
O650        O  0.50430012  0.06666125  0.05322994    -0.78500
C651        C  0.53542407  0.46260490  0.06395134     0.83400
O652        O  0.95651006  0.04184124  0.97273471    -0.78600
C653        C  0.95423208  0.42184851  0.93559792     0.83600
C654        C  0.57738071  0.04242007  0.93543171     0.83900
O655        O  0.54772613  0.02680168  0.91819344    -0.81000
O656        O  0.56442652  0.01340284  0.55097002    -0.78500
C657        C  0.95845039  0.42241858  0.56289493     0.82500
O658        O  0.52157414  0.47945817  0.41651009    -0.79700
O659        O  0.91299230  0.46186713  0.47484725    -0.81100
O660        O  0.99032926  0.06076257  0.55419816    -0.80900
O661        O  0.56566556  0.06320825  0.55324536    -0.79600
Zn662      Zn  0.52170509  0.48029885  0.51882299     1.55700
O663        O  0.94101307  0.00901584  0.55960065    -0.81000
Cd664      Cd  0.52234017  0.05144557  0.51999046     1.59700
Cd665      Cd  0.99627529  0.00307148  0.43999466     1.59600
O666        O  0.53859898  0.08611431  0.47366023    -0.81000
O667        O  0.99737623  0.00253348  0.50003645    -1.91500
Cd668      Cd  0.94868917  0.47724640  0.52128489     1.59900
O669        O  0.52034753  0.05381248  0.41833246    -0.80900
O670        O  0.93850432  0.43296679  0.55193958    -0.79600
C671        C  0.53658378  0.46563046  0.43380352     0.83000
C672        C  0.57869324  0.04500760  0.56219827     0.82600
O673        O  0.99056846  0.43858361  0.55351487    -0.78500
C674        C  0.95960232  0.04146169  0.56765205     0.83400
O675        O  0.53778632  0.46431561  0.47183205    -0.78600
C676        C  0.53559506  0.08339228  0.43579797     0.83600
C677        C  0.91573417  0.46325538  0.43679942     0.83900
O678        O  0.94527239  0.47714262  0.41951471    -0.81000
C679        C  0.59984342  0.16056469  0.12542479    -0.10900
C680        C  0.57941943  0.17420828  0.13685990     0.06200
C681        C  0.54439675  0.15678946  0.12485568    -0.09700
C682        C  0.53016760  0.12648626  0.10174203    -0.11300
C683        C  0.55067548  0.11297140  0.09004889    -0.01100
C684        C  0.58565521  0.13031136  0.10227625    -0.10200
C685        C  0.59473030  0.20661836  0.16100748     0.06300
H686        H  0.52790921  0.16643960  0.13364848     0.08200
H687        H  0.50309368  0.11371040  0.09295384     0.11700
H688        H  0.60221152  0.12068478  0.09370077     0.11900
H689        H  0.62703107  0.17365055  0.13380235     0.08200
C690        C  0.61752026  0.21227615  0.19276397    -0.10900
C691        C  0.63240560  0.24298927  0.21510236    -0.10200
C692        C  0.62452444  0.26849002  0.20642808    -0.01100
C693        C  0.60207671  0.26313386  0.17454572    -0.11300
C694        C  0.58714374  0.23237700  0.15213979    -0.09700
H695        H  0.62365443  0.19282753  0.20051370     0.08200
H696        H  0.65017318  0.24688994  0.23915184     0.11900
H697        H  0.59585769  0.28261942  0.16726289     0.11600
H698        H  0.57006753  0.22895988  0.12749278     0.08200
C699        C  0.83482794  0.44826816  0.11388263    -0.10900
C700        C  0.82085439  0.41533748  0.13157168     0.06200
C701        C  0.83845627  0.39754244  0.12677353    -0.09700
C702        C  0.86935463  0.41237970  0.10479031    -0.11300
C703        C  0.88336955  0.44539098  0.08722024    -0.01100
C704        C  0.86574343  0.46314728  0.09204512    -0.10200
C705        C  0.78831783  0.39992723  0.15539468     0.06300
H706        H  0.82860333  0.37234317  0.14051344     0.08200
H707        H  0.88233831  0.39805012  0.10172608     0.11700
H708        H  0.87565527  0.48847250  0.07861799     0.11900
H709        H  0.82162013  0.46240614  0.11653536     0.08200
C710        C  0.78253089  0.42092305  0.18135267    -0.10900
C711        C  0.75235233  0.40646236  0.20446406    -0.10200
C712        C  0.72740147  0.37079091  0.20198752    -0.01100
C713        C  0.73254212  0.34980397  0.17554267    -0.11300
C714        C  0.76291208  0.36419009  0.15261790    -0.09700
H715        H  0.80171063  0.44843922  0.18446112     0.08200
H716        H  0.74857490  0.42300087  0.22460864     0.11900
H717        H  0.71339433  0.32218404  0.17331717     0.11600
H718        H  0.76641785  0.34744713  0.13253213     0.08200
C719        C  0.63031500  0.40748758  0.14813511    -0.10900
C720        C  0.59619141  0.39920361  0.15585114     0.06200
C721        C  0.57709722  0.37556809  0.18661595    -0.09700
C722        C  0.59207000  0.36108731  0.20967475    -0.11300
C723        C  0.62643021  0.37017421  0.20255374    -0.01100
C724        C  0.64523940  0.39291270  0.17119222    -0.10200
C725        C  0.58066644  0.41543672  0.13223394     0.06300
H726        H  0.55085425  0.36885876  0.19340868     0.08200
H727        H  0.57701862  0.34313302  0.23344800     0.11700
H728        H  0.67172566  0.39997160  0.16517296     0.11900
H729        H  0.64542033  0.42518074  0.12420390     0.08200
C730        C  0.60044066  0.45099789  0.12255269    -0.10900
C731        C  0.58573382  0.46638764  0.10059127    -0.10200
C732        C  0.55092341  0.44652811  0.08782895    -0.01100
C733        C  0.53115853  0.41094523  0.09757731    -0.11300
C734        C  0.54587039  0.39558732  0.11954624    -0.09700
H735        H  0.62718481  0.46703888  0.13242918     0.08200
H736        H  0.60165707  0.49386391  0.09365126     0.11900
H737        H  0.50432189  0.39484331  0.08804310     0.11600
H738        H  0.53012866  0.36803563  0.12617854     0.08200
C739        C  0.58276232  0.17903621  0.40915319    -0.10900
C740        C  0.57723495  0.17793384  0.36773819     0.06200
C741        C  0.55769632  0.14537799  0.34867124    -0.09700
C742        C  0.54427459  0.11454916  0.37057687    -0.11300
C743        C  0.55003199  0.11571589  0.41200345    -0.01100
C744        C  0.56931863  0.14832666  0.43101858    -0.10200
C745        C  0.59260883  0.21066956  0.34444315     0.06300
H746        H  0.55334277  0.14374772  0.31667692     0.08200
H747        H  0.52940997  0.08986079  0.35509555     0.11700
H748        H  0.57411566  0.15021438  0.46292985     0.11900
H749        H  0.59730119  0.20370437  0.42475013     0.08200
C750        C  0.57363444  0.21439422  0.31367124    -0.10900
C751        C  0.58882570  0.24469220  0.29066921    -0.10200
C752        C  0.62338125  0.27155741  0.29768744    -0.01100
C753        C  0.64192771  0.26847798  0.32928063    -0.11300
C754        C  0.62672955  0.23826323  0.35240341    -0.09700
H755        H  0.54706976  0.19388514  0.30741548     0.08200
H756        H  0.57378129  0.24697269  0.26699918     0.11900
H757        H  0.66860083  0.28895091  0.33516617     0.11600
H758        H  0.64208373  0.23605523  0.37572489     0.08200
C759        C  0.85563924  0.43390004  0.34658683    -0.10900
C760        C  0.82281608  0.41941523  0.36462420     0.06200
C761        C  0.82073613  0.41980029  0.40652341    -0.09700
C762        C  0.85084499  0.43400194  0.42995367    -0.11300
C763        C  0.88375084  0.44836965  0.41197107    -0.01100
C764        C  0.88578397  0.44835025  0.36997200    -0.10200
C765        C  0.79079152  0.40352257  0.33985758     0.06300
H766        H  0.79572376  0.40853248  0.42119441     0.08200
H767        H  0.84829440  0.43360560  0.46218245     0.11700
H768        H  0.91067656  0.45935426  0.35510222     0.11900
H769        H  0.85799144  0.43427345  0.31432146     0.08200
C770        C  0.76455844  0.41057013  0.34787637    -0.10900
C771        C  0.73425214  0.39530994  0.32473377    -0.10200
C772        C  0.72960637  0.37271851  0.29320168    -0.01100
C773        C  0.75557564  0.36525980  0.28548850    -0.11300
C774        C  0.78602066  0.38075414  0.30836506    -0.09700
H775        H  0.76769897  0.42822548  0.37178349     0.08200
H776        H  0.71458601  0.40147503  0.33113987     0.11900
H777        H  0.75217647  0.34716575  0.26201424     0.11600
H778        H  0.80556216  0.37442640  0.30197274     0.08200
C779        C  0.59647338  0.37460924  0.35109812    -0.10900
C780        C  0.60190140  0.40716130  0.34021870     0.06200
C781        C  0.62246688  0.42421954  0.30653894    -0.09700
C782        C  0.63695593  0.40881553  0.28398797    -0.11300
C783        C  0.63042554  0.37568316  0.29410217    -0.01100
C784        C  0.61053758  0.35901853  0.32822868    -0.10200
C785        C  0.58586989  0.42298340  0.36390177     0.06300
H786        H  0.62759273  0.44960398  0.29790948     0.08200
H787        H  0.65314022  0.42273737  0.25854032     0.11700
H788        H  0.60514645  0.33350123  0.33668419     0.11900
H789        H  0.58058159  0.36078634  0.37678363     0.08200
C790        C  0.56883712  0.43768261  0.34487185    -0.10900
C791        C  0.55266271  0.45142646  0.36741944    -0.10200
C792        C  0.55340152  0.45095099  0.40947646    -0.01100
C793        C  0.57080968  0.43655076  0.42836359    -0.11300
C794        C  0.58676956  0.42269193  0.40585925    -0.09700
H795        H  0.56747509  0.43794016  0.31254175     0.08200
H796        H  0.53950382  0.46231481  0.35190825     0.11900
H797        H  0.57213467  0.43594095  0.46066891     0.11600
H798        H  0.60005062  0.41189700  0.42130485     0.08200
C799        C  0.90593710  0.08160895  0.90621821    -0.10900
C800        C  0.91298366  0.08785782  0.86514130     0.06200
C801        C  0.93525372  0.07876686  0.84708119    -0.09700
C802        C  0.95004734  0.06368672  0.86957392    -0.11300
C803        C  0.94304719  0.05754218  0.91067622    -0.01100
C804        C  0.92085832  0.06672168  0.92873470    -0.10200
C805        C  0.89729465  0.10394087  0.84128614     0.06300
H806        H  0.94088740  0.08288380  0.81539694     0.08200
H807        H  0.96705020  0.05694936  0.85478641     0.11700
H808        H  0.91487781  0.06229221  0.96032984     0.11900
H809        H  0.88926592  0.08870654  0.92113032     0.08200
C810        C  0.86259882  0.09449299  0.84765325    -0.10900
C811        C  0.84787839  0.10953949  0.82495366    -0.10200
C812        C  0.86745726  0.13400750  0.79528510    -0.01100
C813        C  0.90223979  0.14398748  0.78935939    -0.11300
C814        C  0.91699688  0.12904001  0.81202437    -0.09700
H815        H  0.84663299  0.07501127  0.86970305     0.08200
H816        H  0.82099709  0.10156483  0.82994895     0.11900
H817        H  0.91808959  0.16355691  0.76733970     0.11600
H818        H  0.94397439  0.13745896  0.80699899     0.08200
C819        C  0.87234604  0.29105723  0.80820085    -0.10900
C820        C  0.89269704  0.29560294  0.84199416     0.06200
C821        C  0.89893123  0.26927594  0.85269498    -0.09700
C822        C  0.88576208  0.23927076  0.82926277    -0.11300
C823        C  0.86608805  0.23514774  0.79496239    -0.01100
C824        C  0.85877571  0.26088424  0.78520242    -0.10200
C825        C  0.90759846  0.32790251  0.86580051     0.06300
H826        H  0.91461342  0.27228571  0.87866867     0.08200
H827        H  0.89142235  0.21957197  0.83751628     0.11700
H828        H  0.84229143  0.25757085  0.75999851     0.11900
H829        H  0.86658301  0.31067833  0.79991381     0.08200
C830        C  0.92495547  0.36049296  0.84683174    -0.10900
C831        C  0.93986492  0.39111114  0.86938656    -0.10200
C832        C  0.93748989  0.38963417  0.91131948    -0.01100
C833        C  0.91950579  0.35689809  0.93013848    -0.11300
C834        C  0.90482643  0.32635072  0.90759562    -0.09700
H835        H  0.92756507  0.36225093  0.81457846     0.08200
H836        H  0.95355368  0.41588840  0.85401192     0.11900
H837        H  0.91698322  0.35481325  0.96237897     0.11600
H838        H  0.89116121  0.30147387  0.92278790     0.08200
C839        C  0.67284335  0.09032959  0.90667263    -0.10900
C840        C  0.67119204  0.08701742  0.86482445     0.06200
C841        C  0.63835758  0.06900461  0.84623625    -0.09700
C842        C  0.60787305  0.05465418  0.86902307    -0.11300
C843        C  0.60954994  0.05790606  0.91093207    -0.01100
C844        C  0.64242994  0.07592887  0.92944050    -0.10200
C845        C  0.70363401  0.10232675  0.84074484     0.06300
H846        H  0.63624720  0.06637439  0.81399989     0.08200
H847        H  0.58300693  0.04098718  0.85378682     0.11700
H848        H  0.64474122  0.07885984  0.96163901     0.11900
H849        H  0.69771056  0.10365419  0.92192239     0.08200
C850        C  0.73243681  0.13541652  0.85016796    -0.10900
C851        C  0.76281273  0.14999296  0.82726854    -0.10200
C852        C  0.76500854  0.13182945  0.79446711    -0.01100
C853        C  0.73663946  0.09840300  0.78561948    -0.11300
C854        C  0.70614157  0.08392225  0.80828438    -0.09700
H855        H  0.73122920  0.15036829  0.87478298     0.08200
H856        H  0.78433376  0.17582608  0.83464109     0.11900
H857        H  0.73804368  0.08350044  0.76107473     0.11600
H858        H  0.68467646  0.05812339  0.80075807     0.08200
C859        C  0.91426807  0.14072142  0.66289276    -0.10900
C860        C  0.89917263  0.10432002  0.66142746     0.06200
C861        C  0.86764624  0.08295657  0.68195607    -0.09700
C862        C  0.85215105  0.09755478  0.70391372    -0.11300
C863        C  0.86734471  0.13366800  0.70495564    -0.01100
C864        C  0.89816072  0.15518472  0.68395738    -0.10200
C865        C  0.91582055  0.08865134  0.63821192     0.06300
H866        H  0.85458886  0.05488077  0.68080080     0.08200
H867        H  0.82818397  0.08069980  0.71996242     0.11700
H868        H  0.91026481  0.18322122  0.68493632     0.11900
H869        H  0.93882529  0.15820614  0.64836517     0.08200
C870        C  0.93549091  0.10515673  0.60369573    -0.10900
C871        C  0.95036043  0.09008033  0.58144406    -0.10200
C872        C  0.94501511  0.05766294  0.59241528    -0.01100
C873        C  0.92555913  0.04102132  0.62669482    -0.11300
C874        C  0.91162081  0.05662610  0.64978767    -0.09700
H875        H  0.93882240  0.12936645  0.59311765     0.08200
H876        H  0.96516457  0.10323726  0.55487074     0.11900
H877        H  0.92159621  0.01619037  0.63593053     0.11600
H878        H  0.89765394  0.04353605  0.67674490     0.08200
C879        C  0.92050908  0.28832775  0.68074870    -0.10900
C880        C  0.89967625  0.29588708  0.65663230     0.06200
C881        C  0.86339654  0.27206788  0.65642752    -0.09700
C882        C  0.84854026  0.24164577  0.67916223    -0.11300
C883        C  0.86935083  0.23491526  0.70373985    -0.01100
C884        C  0.90540492  0.25832837  0.70444850    -0.10200
C885        C  0.91541013  0.32842611  0.63212418     0.06300
H886        H  0.84617480  0.27707631  0.63935274     0.08200
H887        H  0.82058552  0.22381218  0.67856850     0.11700
H888        H  0.92181638  0.25319227  0.72307882     0.11900
H889        H  0.94851971  0.30533634  0.68119363     0.08200
C890        C  0.94626001  0.35898810  0.64437220    -0.10900
C891        C  0.96059554  0.38942392  0.62151090    -0.10200
C892        C  0.94383653  0.39032685  0.58668038    -0.01100
C893        C  0.91307957  0.36021418  0.57440500    -0.07700
C894        C  0.89936766  0.32945561  0.59640689    -0.09700
H895        H  0.95913438  0.35976049  0.67196610     0.08200
H896        H  0.98432616  0.41254595  0.63155103     0.11900
H897        H  0.90005196  0.36029898  0.54723571     0.11600
H898        H  0.87631011  0.30646229  0.58503364     0.08200
C899        C  0.65762410  0.05705764  0.61734529    -0.10900
C900        C  0.67376018  0.09176917  0.63047410     0.06200
C901        C  0.65829679  0.11094266  0.62097882    -0.09700
C902        C  0.62739830  0.09574314  0.59897083    -0.11300
C903        C  0.61126144  0.06101830  0.58588193    -0.01100
C904        C  0.62676679  0.04187370  0.59528164    -0.10200
C905        C  0.70625128  0.10763918  0.65453006     0.06300
H906        H  0.67028995  0.13787296  0.63017023     0.08200
H907        H  0.61622836  0.11127804  0.59210892     0.11700
H908        H  0.61501989  0.01506467  0.58568708     0.11900
H909        H  0.66854057  0.04138779  0.62468672     0.08200
C910        C  0.71139684  0.12995532  0.68672917    -0.10900
C911        C  0.74133779  0.14382319  0.71025573    -0.10200
C912        C  0.76639533  0.13513807  0.70253800    -0.01100
C913        C  0.76193609  0.11380621  0.66974799    -0.11300
C914        C  0.73211808  0.10012364  0.64597423    -0.09700
H915        H  0.69195454  0.13613882  0.69429937     0.08200
H916        H  0.74474548  0.16102708  0.73480698     0.11900
H917        H  0.78122461  0.10718814  0.66300990     0.11600
H918        H  0.72931194  0.08364777  0.62087929     0.08200
C919        C  0.83429169  0.66696961  0.71049478     0.45400
H920        H  0.83484831  0.66718787  0.67725191    -0.03600
C921        C  0.83347505  0.66676133  0.78841553     0.45500
H922        H  0.83320860  0.66661742  0.82164242    -0.03600
C923        C  0.85297212  0.70340305  0.72896401    -0.17300
C924        C  0.79750698  0.64854590  0.72836062    -0.17100
C925        C  0.85175773  0.64912495  0.72934631    -0.17400
C926        C  0.85234725  0.70345783  0.77005718    -0.17400
C927        C  0.79700212  0.64810417  0.76956564    -0.17000
C928        C  0.85142182  0.64896134  0.77033916    -0.17300
C929        C  0.66112537  0.83968814  0.28820667     0.45400
H930        H  0.66190650  0.84075620  0.32140973    -0.03600
C931        C  0.65945402  0.83695093  0.21037790     0.45500
H932        H  0.65886550  0.83587074  0.17715094    -0.03600
C933        C  0.69729783  0.85668531  0.26890151    -0.17300
C934        C  0.64070326  0.80245579  0.27135390    -0.17100
C935        C  0.64410818  0.85810856  0.26931430    -0.17400
C936        C  0.69630283  0.85524317  0.22784078    -0.17400
C937        C  0.64013677  0.80102843  0.23025843    -0.17000
C938        C  0.64302149  0.85636432  0.22819375    -0.17300
O939        O  0.92977298  0.99229740  0.05124105    -0.78500
C940        C  0.53584100  0.58131549  0.06476873     0.82500
O941        O  0.97365682  0.52792089  0.91719143    -0.79700
O942        O  0.58019713  0.54499564  0.97341057    -0.81100
O943        O  0.50365017  0.94392799  0.05339701    -0.80900
O944        O  0.92887339  0.94271890  0.05497525    -0.79600
Zn945      Zn  0.97239626  0.52509147  0.01887592     1.55700
O946        O  0.55421435  0.99459410  0.05417192    -0.81000
Cd947      Cd  0.97123875  0.95368676  0.02025909     1.59700
Cd948      Cd  0.99698521  0.50222643  0.93975552     1.59600
O949        O  0.95275462  0.91904210  0.97353193    -0.81000
O950        O  0.99618769  0.50243410  0.99976650    -1.91500
Cd951      Cd  0.54502519  0.52726002  0.02016187     1.59900
O952        O  0.96991751  0.95144178  0.91828923    -0.80900
O953        O  0.55497129  0.56951557  0.05480122    -0.79600
C954        C  0.95862443  0.54161039  0.93474816     0.83000
C955        C  0.91578340  0.96098741  0.06335033     0.82600
O956        O  0.50429920  0.56666156  0.05322971    -0.78500
C957        C  0.53542256  0.96260321  0.06395319     0.83400
O958        O  0.95650772  0.54184009  0.97273627    -0.78600
C959        C  0.95423027  0.92184691  0.93559902     0.83600
C960        C  0.57738097  0.54242362  0.93543108     0.83900
O961        O  0.54772634  0.52680514  0.91819299    -0.81000
O962        O  0.56442614  0.51340266  0.55096937    -0.78500
C963        C  0.95845115  0.92241727  0.56289583     0.82500
O964        O  0.52157382  0.97945641  0.41651171    -0.79700
O965        O  0.91299214  0.96186510  0.47484816    -0.81100
O966        O  0.99033123  0.56076469  0.55419728    -0.80900
O967        O  0.56566608  0.56320850  0.55324461    -0.79600
Zn968      Zn  0.52170554  0.98029843  0.51882439     1.55700
O969        O  0.94101430  0.50901864  0.55959861    -0.81000
Cd970      Cd  0.52234104  0.55144648  0.51998972     1.59700
Cd971      Cd  0.99627501  0.50307249  0.43999313     1.59600
O972        O  0.53860063  0.58611534  0.47365987    -0.81000
O973        O  0.99737645  0.50253462  0.50003493    -1.91500
Cd974      Cd  0.94868874  0.97724439  0.52128621     1.59900
O975        O  0.52034744  0.55381391  0.41833181    -0.80900
O976        O  0.93850450  0.93296461  0.55194008    -0.79600
C977        C  0.53658377  0.96562910  0.43380531     0.83000
C978        C  0.57869327  0.54500747  0.56219765     0.82600
O979        O  0.99056939  0.93858310  0.55351657    -0.78500
C980        C  0.95960405  0.54146432  0.56765066     0.83400
O981        O  0.53778676  0.96431489  0.47183383    -0.78600
C982        C  0.53559595  0.58339357  0.43579767     0.83600
C983        C  0.91573446  0.96325400  0.43680034     0.83900
O984        O  0.94527285  0.97714185  0.41951604    -0.81000
C985        C  0.59983989  0.66056142  0.12543149    -0.10900
C986        C  0.57941712  0.67420771  0.13686156     0.06200
C987        C  0.54439611  0.65679212  0.12485128    -0.09700
C988        C  0.53016734  0.62648935  0.10173693    -0.11300
C989        C  0.55067402  0.61297170  0.09004914    -0.01100
C990        C  0.58565211  0.63030854  0.10228224    -0.10200
C991        C  0.59472774  0.70661743  0.16100979     0.06300
H992        H  0.52790945  0.66644444  0.13363987     0.08200
H993        H  0.50309477  0.61371607  0.09294398     0.11700
H994        H  0.60220745  0.62067973  0.09371100     0.11900
H995        H  0.62702637  0.67364482  0.13381352     0.08200
C996        C  0.61751457  0.71227310  0.19276906    -0.10900
C997        C  0.63240080  0.74298642  0.21510711    -0.10200
C998        C  0.62452320  0.76848934  0.20643027    -0.01100
C999        C  0.60207800  0.76313491  0.17454565    -0.11300
C1000       C  0.58714463  0.73237811  0.15213960    -0.09700
H1001       H  0.62364599  0.69282291  0.20052088     0.08200
H1002       H  0.65016657  0.74688560  0.23915811     0.11900
H1003       H  0.59586157  0.78262197  0.16726079     0.11600
H1004       H  0.57007094  0.72896273  0.12749041     0.08200
C1005       C  0.83482516  0.94826714  0.11387632    -0.10900
C1006       C  0.82085374  0.91533825  0.13156940     0.06200
C1007       C  0.83845797  0.89754515  0.12677585    -0.09700
C1008       C  0.86935646  0.91238239  0.10479300    -0.11300
C1009       C  0.88336920  0.94539178  0.08721873    -0.01100
C1010       C  0.86574086  0.96314628  0.09203914    -0.10200
C1011       C  0.78831707  0.89992792  0.15539210     0.06300
H1012       H  0.82860672  0.87234742  0.14051910     0.08200
H1013       H  0.88234199  0.89805433  0.10173240     0.11700
H1014       H  0.87565107  0.98847001  0.07860863     0.11900
H1015       H  0.82161556  0.96240357  0.11652571     0.08200
C1016       C  0.78252842  0.92092420  0.18134724    -0.10900
C1017       C  0.75235015  0.90646318  0.20445920    -0.10200
C1018       C  0.72740126  0.87079102  0.20198580    -0.01100
C1019       C  0.73254346  0.84980358  0.17554355    -0.11300
C1020       C  0.76291319  0.86418999  0.15261838    -0.09700
H1021       H  0.80170673  0.94844102  0.18445321     0.08200
H1022       H  0.74857145  0.92300199  0.22460186     0.11900
H1023       H  0.71339713  0.82218307  0.17332056     0.11600
H1024       H  0.76642035  0.84744668  0.13253483     0.08200
C1025       C  0.63031405  0.90748724  0.14813707    -0.10900
C1026       C  0.59618996  0.89920186  0.15585277     0.06200
C1027       C  0.57709584  0.87556535  0.18661678    -0.09700
C1028       C  0.59206936  0.86108525  0.20967554    -0.11300
C1029       C  0.62643008  0.87017364  0.20255491    -0.01100
C1030       C  0.64523910  0.89291289  0.17119392    -0.10200
C1031       C  0.58066463  0.91543498  0.13223631     0.06300
H1032       H  0.55085241  0.86885489  0.19340904     0.08200
H1033       H  0.57701822  0.84313037  0.23344842     0.11700
H1034       H  0.67172571  0.89997281  0.16517497     0.11900
H1035       H  0.64541930  0.92518123  0.12420644     0.08200
C1036       C  0.60043796  0.95099680  0.12255806    -0.10900
C1037       C  0.58573110  0.96638655  0.10059669    -0.10200
C1038       C  0.55092156  0.94652637  0.08783140    -0.01100
C1039       C  0.53115748  0.91094287  0.09757711    -0.11300
C1040       C  0.54586934  0.89558495  0.11954613    -0.09700
H1041       H  0.62718142  0.96703818  0.13243667     0.08200
H1042       H  0.60165371  0.99386332  0.09365892     0.11900
H1043       H  0.50432155  0.89484041  0.08804048     0.11600
H1044       H  0.53012837  0.86803282  0.12617637     0.08200
C1045       C  0.58276626  0.67903765  0.40915417    -0.10900
C1046       C  0.57723558  0.67793586  0.36773994     0.06200
C1047       C  0.55769382  0.64538030  0.34867306    -0.09700
C1048       C  0.54427230  0.61455119  0.37057796    -0.11300
C1049       C  0.55003301  0.61571736  0.41200372    -0.01100
C1050       C  0.56932277  0.64832782  0.43101881    -0.10200
C1051       C  0.59260961  0.71067179  0.34444550     0.06300
H1052       H  0.55333765  0.64375046  0.31667925     0.08200
H1053       H  0.52940511  0.58986299  0.35509679     0.11700
H1054       H  0.57412244  0.65021503  0.46292954     0.11900
H1055       H  0.59730764  0.70370559  0.42475107     0.08200
C1056       C  0.57363403  0.71439822  0.31367646    -0.10900
C1057       C  0.58882566  0.74469603  0.29067423    -0.10200
C1058       C  0.62338250  0.77155924  0.29768955    -0.01100
C1059       C  0.64193018  0.76847837  0.32928019    -0.11300
C1060       C  0.62673176  0.73826373  0.35240304    -0.09700
H1061       H  0.54706832  0.69389050  0.30742291     0.08200
H1062       H  0.57378061  0.74697783  0.26700587     0.11900
H1063       H  0.66860431  0.78894990  0.33516329     0.11600
H1064       H  0.64208685  0.73605434  0.37572230     0.08200
C1065       C  0.85564126  0.93390343  0.34658644    -0.10900
C1066       C  0.82281761  0.91941532  0.36462330     0.06200
C1067       C  0.82073654  0.91979614  0.40652269    -0.09700
C1068       C  0.85084501  0.93399716  0.42995354    -0.11300
C1069       C  0.88375143  0.94836842  0.41197149    -0.01100
C1070       C  0.88578560  0.94835303  0.36997226    -0.10200
C1071       C  0.79079358  0.90352359  0.33985601     0.06300
H1072       H  0.79572374  0.90852568  0.42119310     0.08200
H1073       H  0.84829362  0.93359756  0.46218249     0.11700
H1074       H  0.91067859  0.95935986  0.35510293     0.11900
H1075       H  0.85799419  0.93427999  0.31432102     0.08200
C1076       C  0.76455998  0.91057008  0.34787595    -0.10900
C1077       C  0.73425379  0.89531019  0.32473325    -0.10200
C1078       C  0.72960860  0.87272000  0.29319989    -0.01100
C1079       C  0.75557862  0.86526259  0.28548538    -0.11300
C1080       C  0.78602360  0.88075676  0.30836200    -0.09700
H1081       H  0.76769994  0.92822421  0.37178435     0.08200
H1082       H  0.71458715  0.90147428  0.33114051     0.11900
H1083       H  0.75217991  0.84716929  0.26201034     0.11600
H1084       H  0.80556562  0.87442993  0.30196884     0.08200
C1085       C  0.59647762  0.87461065  0.35110169    -0.10900
C1086       C  0.60190337  0.90716159  0.34022114     0.06200
C1087       C  0.62246678  0.92421909  0.30653984    -0.09700
C1088       C  0.63695575  0.90881533  0.28398824    -0.11300
C1089       C  0.63042730  0.87568387  0.29410343    -0.01100
C1090       C  0.61054169  0.85902015  0.32823166    -0.10200
C1091       C  0.58587116  0.92298302  0.36390417     0.06300
H1092       H  0.62759104  0.94960280  0.29790953     0.08200
H1093       H  0.65313845  0.92273667  0.25853946     0.11700
H1094       H  0.60515213  0.83350359  0.33668809     0.11900
H1095       H  0.58058749  0.86078831  0.37678844     0.08200
C1096       C  0.56883655  0.93768025  0.34487410    -0.10900
C1097       C  0.55266152  0.95142352  0.36742151    -0.10200
C1098       C  0.55340154  0.95094951  0.40947851    -0.01100
C1099       C  0.57081133  0.93655109  0.42836581    -0.11300
C1100       C  0.58677184  0.92269277  0.40586168    -0.09700
H1101       H  0.56747366  0.93793677  0.31254402     0.08200
H1102       H  0.53950130  0.96231041  0.35191017     0.11900
H1103       H  0.57213728  0.93594245  0.46067116     0.11600
H1104       H  0.60005417  0.91189932  0.42130738     0.08200
C1105       C  0.90593146  0.58160462  0.90621997    -0.10900
C1106       C  0.91298068  0.58785670  0.86514387     0.06200
C1107       C  0.93525287  0.57876838  0.84708419    -0.09700
C1108       C  0.95004630  0.56368794  0.86957653    -0.11300
C1109       C  0.94304392  0.55754060  0.91067813    -0.01100
C1110       C  0.92085263  0.56671713  0.92873622    -0.10200
C1111       C  0.89729233  0.60394037  0.84128887     0.06300
H1112       H  0.94088854  0.58288782  0.81540047     0.08200
H1113       H  0.96705097  0.55695283  0.85478936     0.11700
H1114       H  0.91487034  0.56228528  0.96033076     0.11900
H1115       H  0.88925837  0.58869999  0.92113166     0.08200
C1116       C  0.86259523  0.59448961  0.84765194    -0.10900
C1117       C  0.84787525  0.60953607  0.82495150    -0.10200
C1118       C  0.86745601  0.63400691  0.79528617    -0.01100
C1119       C  0.90223986  0.64399009  0.78936491    -0.11300
C1120       C  0.91699646  0.62904264  0.81203076    -0.09700
H1121       H  0.84662809  0.57500558  0.86969909     0.08200
H1122       H  0.82099304  0.60155934  0.82994357     0.11900
H1123       H  0.91809104  0.66356206  0.76734835     0.11600
H1124       H  0.94397499  0.63746387  0.80700882     0.08200
C1125       C  0.87234129  0.79105484  0.80820128    -0.10900
C1126       C  0.89269228  0.79560104  0.84199489     0.06200
C1127       C  0.89892781  0.76927482  0.85269530    -0.09700
C1128       C  0.88575987  0.73927003  0.82926273    -0.11300
C1129       C  0.86608599  0.73514665  0.79496219    -0.01100
C1130       C  0.85877253  0.76088232  0.78520217    -0.10200
C1131       C  0.90759326  0.82790062  0.86580146     0.06300
H1132       H  0.91461022  0.77228494  0.87866883     0.08200
H1133       H  0.89142114  0.71957186  0.83751607     0.11700
H1134       H  0.84228880  0.75756868  0.75999749     0.11900
H1135       H  0.86657730  0.81067521  0.79991426     0.08200
C1136       C  0.92494653  0.86049107  0.84683255    -0.10900
C1137       C  0.93985696  0.89110925  0.86938747    -0.10200
C1138       C  0.93748690  0.88963240  0.91132074    -0.01100
C1139       C  0.91950636  0.85689635  0.93014002    -0.11300
C1140       C  0.90482578  0.82634896  0.90759703    -0.09700
H1141       H  0.92755284  0.86224918  0.81457896     0.08200
H1142       H  0.95354265  0.91588647  0.85401252     0.11900
H1143       H  0.91698764  0.85481155  0.96238083     0.11600
H1144       H  0.89116343  0.80147219  0.92278967     0.08200
C1145       C  0.67284337  0.59033353  0.90667101    -0.10900
C1146       C  0.67119164  0.58702099  0.86482286     0.06200
C1147       C  0.63835705  0.56900831  0.84623501    -0.09700
C1148       C  0.60787276  0.55465815  0.86902216    -0.11300
C1149       C  0.60955004  0.55791012  0.91093116    -0.01100
C1150       C  0.64243017  0.57593298  0.92943924    -0.10200
C1151       C  0.70363327  0.60232946  0.84074287     0.06300
H1152       H  0.63624644  0.56637781  0.81399868     0.08200
H1153       H  0.58300653  0.54099107  0.85378618     0.11700
H1154       H  0.64474171  0.57886398  0.96163774     0.11900
H1155       H  0.69771075  0.60365817  0.92192045     0.08200
C1156       C  0.73243614  0.63541950  0.85016470    -0.10900
C1157       C  0.76281202  0.64999485  0.82726543    -0.10200
C1158       C  0.76500769  0.63182998  0.79446538    -0.01100
C1159       C  0.73663832  0.59840350  0.78561860    -0.11300
C1160       C  0.70614051  0.58392378  0.80828348    -0.09700
H1161       H  0.73122866  0.65037221  0.87477877     0.08200
H1162       H  0.78433324  0.67582811  0.83463712     0.11900
H1163       H  0.73804237  0.58350007  0.76107475     0.11600
H1164       H  0.68467516  0.55812473  0.80075810     0.08200
C1165       C  0.91427767  0.64072392  0.66290747    -0.10900
C1166       C  0.89917443  0.60432185  0.66142774     0.06200
C1167       C  0.86764033  0.58295755  0.68194217    -0.09700
C1168       C  0.85214508  0.59755533  0.70390047    -0.11300
C1169       C  0.86734663  0.63366922  0.70495688    -0.01100
C1170       C  0.89817058  0.65518722  0.68397259    -0.10200
C1171       C  0.91582250  0.58865344  0.63821220     0.06300
H1172       H  0.85457718  0.55488165  0.68077519     0.08200
H1173       H  0.82817175  0.58069954  0.71993810     0.11700
H1174       H  0.91028041  0.68322413  0.68496268     0.11900
H1175       H  0.93884055  0.65820882  0.64839083     0.08200
C1176       C  0.93550439  0.60516590  0.60370505    -0.10900
C1177       C  0.95037380  0.59008954  0.58145294    -0.10200
C1178       C  0.94501727  0.55766570  0.59241473    -0.01100
C1179       C  0.92554999  0.54101733  0.62668553    -0.11300
C1180       C  0.91161135  0.55662148  0.64977883    -0.09700
H1181       H  0.93884508  0.62938134  0.59313416     0.08200
H1182       H  0.96518667  0.60325192  0.55488647     0.11900
H1183       H  0.92157814  0.51618129  0.63591420     0.11600
H1184       H  0.89763517  0.54352555  0.67672927     0.08200
C1185       C  0.92050961  0.78833048  0.68075568    -0.10900
C1186       C  0.89967807  0.79588573  0.65663130     0.06200
C1187       C  0.86339920  0.77206288  0.65641868    -0.09700
C1188       C  0.84854234  0.74164125  0.67915420    -0.11300
C1189       C  0.86935137  0.73491459  0.70373968    -0.01100
C1190       C  0.90540473  0.75833127  0.70445570    -0.10200
C1191       C  0.91541234  0.82842466  0.63212339     0.06300
H1192       H  0.84617843  0.77706825  0.63933704     0.08200
H1193       H  0.82058817  0.72380483  0.67855459     0.11700
H1194       H  0.92181510  0.75319816  0.72309209     0.11900
H1195       H  0.94851980  0.80534228  0.68120673     0.08200
C1196       C  0.94625587  0.85898980  0.64437864    -0.10900
C1197       C  0.96059113  0.88942590  0.62151796    -0.10200
C1198       C  0.94383787  0.89032547  0.58668059    -0.01100
C1199       C  0.91308746  0.86020949  0.57439761    -0.07700
C1200       C  0.89937608  0.82945093  0.59639934    -0.09700
H1201       H  0.95912506  0.85976428  0.67197769     0.08200
H1202       H  0.98431674  0.91255055  0.63156359     0.11900
H1203       H  0.90006471  0.86029196  0.54722297     0.11600
H1204       H  0.87632371  0.80645514  0.58502109     0.08200
C1205       C  0.65762267  0.55705616  0.61734702    -0.10900
C1206       C  0.67376069  0.59176871  0.63047257     0.06200
C1207       C  0.65829906  0.61094332  0.62097455    -0.09700
C1208       C  0.62740027  0.59574380  0.59896705    -0.11300
C1209       C  0.61126149  0.56101794  0.58588130    -0.01100
C1210       C  0.62676513  0.54187226  0.59528373    -0.10200
C1211       C  0.70625191  0.60763869  0.65452829     0.06300
H1212       H  0.67029374  0.63787432  0.63016342     0.08200
H1213       H  0.61623174  0.61127954  0.59210293     0.11700
H1214       H  0.61501674  0.51506246  0.58569162     0.11900
H1215       H  0.66853784  0.54138556  0.62469064     0.08200
C1216       C  0.71139857  0.62995671  0.68672569    -0.10900
C1217       C  0.74133934  0.64382432  0.71025247    -0.10200
C1218       C  0.76639569  0.63513729  0.70253649    -0.01100
C1219       C  0.76193555  0.61380367  0.66974800    -0.11300
C1220       C  0.73211754  0.60012112  0.64597416    -0.09700
H1221       H  0.69195713  0.63614177  0.69429452     0.08200
H1222       H  0.74474781  0.66102948  0.73480262     0.11900
H1223       H  0.78122324  0.60718418  0.66301136     0.11600
H1224       H  0.72931044  0.58364364  0.62088058     0.08200
loop_ 
_geom_bond_atom_site_label_1 
_geom_bond_atom_site_label_2 
_geom_bond_distance 
_geom_bond_site_symmetry_2 
_ccdc_geom_bond_type 
C1            H2   1.112       .  S
C1            C7   1.530       .  S
C1            C6   1.536       .  S
C1            C5   1.528       .  S
C3            H4   1.111       .  S
C3            C9   1.537       .  S
C3            C8   1.538       .  S
C3           C10   1.534       .  S
C5            C8   1.374       .  D
C5          C271   1.476       .  S
C6            C9   1.378       .  D
C6          C300   1.480       .  S
C7           C10   1.371       .  D
C7          C251   1.471       .  S
C8          C211   1.479       .  S
C9          C240   1.486       .  S
C10         C200   1.481       .  S
C11          H12   1.111       .  S
C11          C17   1.535       .  S
C11          C16   1.536       .  S
C11          C15   1.536       .  S
C13          H14   1.112       .  S
C13          C19   1.533       .  S
C13          C18   1.532       .  S
C13          C20   1.535       .  S
C15          C18   1.374       .  D
C15         C160   1.484       .  S
C16          C19   1.375       .  D
C16         C140   1.480       .  S
C17          C20   1.376       .  D
C17         C171   1.487       .  S
C18         C100   1.476       .  S
C19          C80   1.482       .  S
C20         C111   1.476       .  S
O21          C37   1.274       .  A
O21        Zn333   2.020       .  S
C22          O38   1.275       .  A
C22          O35   1.275       .  A
C22          C71   1.482       .  S
O23          C36   1.276       .  A
O23         Cd30   2.078       .  S
O24          C42   1.275       .  A
O24         Cd33   2.068   1_556  S
O25          C39   1.274       .  A
O25        Cd641   2.061   1_455  S
O26          C37   1.273       .  A
O26         Cd29   2.064       .  S
Zn27         O40   2.011   1_554  S
Zn27        O327   2.020   1_545  S
Zn27        O650   2.017       .  S
Zn27         O32   1.940   1_554  S
O28          C39   1.275       .  A
O28        Cd339   2.072       .  S
Cd29         O31   2.050   1_554  S
Cd29        O637   2.061       .  S
Cd29        O338   1.995   1_554  S
Cd30        O340   2.077   1_545  S
Cd30        O655   2.082       .  S
Cd30         O32   2.007       .  S
O31          C41   1.273       .  A
O32        Cd335   1.995   1_546  S
O32        Cd645   1.997   1_556  S
Cd33         O35   2.067       .  S
Cd33        O334   2.072   1_545  S
Cd33        O644   1.997   1_454  S
O34          C41   1.276       .  A
O34        Cd336   2.077       .  S
C36          O40   1.274       .  A
C36         C191   1.482       .  S
C37          C91   1.482       .  S
O38        Zn639   2.017   1_455  S
C39         C120   1.481       .  S
C41         C220   1.478       .  S
C42          O43   1.277       .  A
C42         C231   1.485       .  S
O43        Cd642   2.082   1_455  S
O44          C60   1.274       .  A
O44        Zn356   2.019   1_545  S
C45          O61   1.274       .  A
C45          O58   1.275       .  A
C45         C280   1.472       .  S
O46          C59   1.277       .  A
O46        Cd971   2.083   1_455  S
O47          C65   1.276       .  A
O47         Cd56   2.077       .  S
O48          C62   1.272       .  A
O48        Cd664   2.053       .  S
O49          C60   1.273       .  A
O49         Cd52   2.063       .  S
Zn50         O63   2.016       .  S
Zn50        O350   2.019       .  S
Zn50        O673   2.023   1_455  S
Zn50        O973   1.943   1_455  S
O51          C62   1.276       .  A
O51        Cd362   2.082   1_545  S
Cd52         O54   2.046       .  S
Cd52        O660   2.053   1_455  S
Cd52        O667   1.992   1_455  S
Cd53        O964   2.083   1_545  S
Cd53        O669   2.084       .  S
Cd53        O372   2.076   1_545  S
Cd53         O55   2.008       .  S
O54          C64   1.272       .  A
O55        Zn968   1.943   1_545  S
O55        Cd664   1.992       .  S
O55        Cd362   2.002   1_545  S
Cd56         O58   2.073       .  S
Cd56        O357   2.082       .  S
Cd56        O361   2.002       .  S
O57          C64   1.276       .  A
O57        Cd665   2.084   1_455  S
C59          O63   1.275       .  A
C59         C180   1.485       .  S
C60         C291   1.481       .  S
O61        Zn662   2.023       .  S
C62         C260   1.470       .  S
C64         C131   1.480       .  S
C65          O66   1.277       .  A
C65         C151   1.485       .  S
O66        Cd359   2.076       .  S
C67          C68   1.405       .  A
C67          C72   1.397       .  A
C67          H77   1.083       .  S
C68          C73   1.484       .  S
C68          C69   1.405       .  A
C69          C70   1.398       .  A
C69          H74   1.083       .  S
C70          C71   1.406       .  A
C70          H75   1.083       .  S
C71          C72   1.406       .  A
C72          H76   1.083       .  S
C73          C78   1.406       .  A
C73          C82   1.407       .  A
C78          C79   1.396       .  A
C78          H83   1.083       .  S
C79          C80   1.403       .  A
C79          H84   1.083       .  S
C80          C81   1.402       .  A
C81          C82   1.399       .  A
C81          H85   1.083       .  S
C82          H86   1.083       .  S
C87          C88   1.405       .  A
C87          C92   1.397       .  A
C87          H97   1.083       .  S
C88          C93   1.485       .  S
C88          C89   1.406       .  A
C89          C90   1.399       .  A
C89          H94   1.083       .  S
C90          C91   1.406       .  A
C90          H95   1.083       .  S
C91          C92   1.405       .  A
C92          H96   1.083       .  S
C93          C98   1.406       .  A
C93         C102   1.408       .  A
C98          C99   1.396       .  A
C98         H103   1.083       .  S
C99         C100   1.401       .  A
C99         H104   1.083       .  S
C100        C101   1.401       .  A
C101        C102   1.399       .  A
C101        H105   1.084       .  S
C102        H106   1.083       .  S
C107        C108   1.406       .  A
C107        C112   1.397       .  A
C107        H117   1.083       .  S
C108        C113   1.482       .  S
C108        C109   1.406       .  A
C109        C110   1.395       .  A
C109        H114   1.083       .  S
C110        C111   1.402       .  A
C110        H115   1.083       .  S
C111        C112   1.401       .  A
C112        H116   1.083       .  S
C113        C118   1.405       .  A
C113        C122   1.404       .  A
C118        C119   1.397       .  A
C118        H123   1.083       .  S
C119        C120   1.406       .  A
C119        H124   1.083       .  S
C120        C121   1.406       .  A
C121        C122   1.396       .  A
C121        H125   1.083       .  S
C122        H126   1.083       .  S
C127        C128   1.403       .  A
C127        C132   1.394       .  A
C127        H137   1.083       .  S
C128        C133   1.483       .  S
C128        C129   1.407       .  A
C129        C130   1.399       .  A
C129        H134   1.083       .  S
C130        C131   1.405       .  A
C130        H135   1.083       .  S
C131        C132   1.407       .  A
C132        H136   1.083       .  S
C133        C138   1.405       .  A
C133        C142   1.407       .  A
C138        C139   1.396       .  A
C138        H143   1.083       .  S
C139        C140   1.404       .  A
C139        H144   1.083       .  S
C140        C141   1.400       .  A
C141        C142   1.396       .  A
C141        H145   1.083       .  S
C142        H146   1.083       .  S
C147        C148   1.404       .  A
C147        C152   1.399       .  A
C147        H157   1.083       .  S
C148        C153   1.483       .  S
C148        C149   1.405       .  A
C149        C150   1.399       .  A
C149        H154   1.083       .  S
C150        C151   1.407       .  A
C150        H155   1.083       .  S
C151        C152   1.407       .  A
C152        H156   1.083       .  S
C153        C158   1.405       .  A
C153        C162   1.405       .  A
C158        C159   1.398       .  A
C158        H163   1.083       .  S
C159        C160   1.403       .  A
C159        H164   1.083       .  S
C160        C161   1.404       .  A
C161        C162   1.398       .  A
C161        H165   1.083       .  S
C162        H166   1.083       .  S
C167        C168   1.406       .  A
C167        C172   1.397       .  A
C167        H177   1.083       .  S
C168        C173   1.485       .  S
C168        C169   1.405       .  A
C169        C170   1.399       .  A
C169        H174   1.083       .  S
C170        C171   1.406       .  A
C170        H175   1.083       .  S
C171        C172   1.403       .  A
C172        H176   1.083       .  S
C173        C178   1.406       .  A
C173        C182   1.404       .  A
C178        C179   1.401       .  A
C178        H183   1.083       .  S
C179        C180   1.407       .  A
C179        H184   1.083       .  S
C180        C181   1.407       .  A
C181        C182   1.397       .  A
C181        H185   1.083       .  S
C182        H186   1.083       .  S
C187        C188   1.405       .  A
C187        C192   1.397       .  A
C187        H197   1.083       .  S
C188        C193   1.487       .  S
C188        C189   1.407       .  A
C189        C190   1.399       .  A
C189        H194   1.083       .  S
C190        C191   1.405       .  A
C190        H195   1.083       .  S
C191        C192   1.406       .  A
C192        H196   1.083       .  S
C193        C198   1.408       .  A
C193        C202   1.406       .  A
C198        C199   1.399       .  A
C198        H203   1.083       .  S
C199        C200   1.401       .  A
C199        H204   1.083       .  S
C200        C201   1.403       .  A
C201        C202   1.396       .  A
C201        H205   1.083       .  S
C202        H206   1.082       .  S
C207        C208   1.402       .  A
C207        C212   1.393       .  A
C207        H217   1.083       .  S
C208        C213   1.476       .  S
C208        C209   1.405       .  A
C209        C210   1.397       .  A
C209        H214   1.083       .  S
C210        C211   1.402       .  A
C210        H215   1.083       .  S
C211        C212   1.404       .  A
C212        H216   1.082       .  S
C213        C218   1.404       .  A
C213        C222   1.401       .  A
C218        C219   1.397       .  A
C218        H223   1.083       .  S
C219        C220   1.405       .  A
C219        H224   1.083       .  S
C220        C221   1.407       .  A
C221        C222   1.395       .  A
C221        H225   1.083       .  S
C222        H226   1.083       .  S
C227        C228   1.405       .  A
C227        C232   1.397       .  A
C227        H237   1.083       .  S
C228        C233   1.487       .  S
C228        C229   1.407       .  A
C229        C230   1.400       .  A
C229        H234   1.083       .  S
C230        C231   1.406       .  A
C230        H235   1.083       .  S
C231        C232   1.407       .  A
C232        H236   1.083       .  S
C233        C238   1.407       .  A
C233        C242   1.406       .  A
C238        C239   1.398       .  A
C238        H243   1.083       .  S
C239        C240   1.403       .  A
C239        H244   1.083       .  S
C240        C241   1.404       .  A
C241        C242   1.398       .  A
C241        H245   1.083       .  S
C242        H246   1.082       .  S
C247        C248   1.411       .  A
C247        C252   1.397       .  A
C247        H257   1.082       .  S
C248        C253   1.492       .  S
C248        C249   1.410       .  A
C249        C250   1.396       .  A
C249        H254   1.082       .  S
C250        C251   1.398       .  A
C250        H255   1.084       .  S
C251        C252   1.398       .  A
C252        H256   1.084       .  S
C253        C258   1.408       .  A
C253        C262   1.411       .  A
C258        C259   1.396       .  A
C258        H263   1.082       .  S
C259        C260   1.402       .  A
C259        H264   1.083       .  S
C260        C261   1.400       .  A
C261        C262   1.398       .  A
C261        H265   1.084       .  S
C262        H266   1.081       .  S
C267        C268   1.411       .  A
C267        C272   1.400       .  A
C267        H277   1.082       .  S
C268        C273   1.497       .  S
C268        C269   1.411       .  A
C269        C270   1.396       .  A
C269        H274   1.081       .  S
C270        C271   1.398       .  A
C270        H275   1.084       .  S
C271        C272   1.400       .  A
C272        H276   1.083       .  S
C273        C278   1.411       .  A
C273        C282   1.411       .  A
C278        C279   1.400       .  A
C278        H283   1.081       .  S
C279        C280   1.401       .  A
C279        H284   1.083       .  S
C280        C281   1.400       .  A
C281        C282   1.397       .  A
C281        H285   1.084       .  S
C282        H286   1.081       .  S
C287        C288   1.406       .  A
C287        C292   1.397       .  A
C287        H297   1.083       .  S
C288        C293   1.486       .  S
C288        C289   1.406       .  A
C289        C290   1.397       .  A
C289        H294   1.083       .  S
C290        C291   1.406       .  A
C290        H295   1.083       .  S
C291        C292   1.405       .  A
C292        H296   1.083       .  S
C293        C298   1.406       .  A
C293        C302   1.407       .  A
C298        C299   1.396       .  A
C298        H303   1.082       .  S
C299        C300   1.403       .  A
C299        H304   1.083       .  S
C300        C301   1.401       .  A
C301        C302   1.397       .  A
C301        H305   1.083       .  S
C302        H306   1.083       .  S
C307        H308   1.112       .  S
C307        C313   1.530       .  S
C307        C312   1.536       .  S
C307        C311   1.528       .  S
C309        H310   1.111       .  S
C309        C315   1.537       .  S
C309        C314   1.538       .  S
C309        C316   1.534       .  S
C311        C314   1.374       .  D
C311        C577   1.476       .  S
C312        C315   1.378       .  D
C312        C606   1.480       .  S
C313        C316   1.371       .  D
C313        C557   1.471       .  S
C314        C517   1.479       .  S
C315        C546   1.486       .  S
C316        C506   1.481       .  S
C317        H318   1.111       .  S
C317        C323   1.535       .  S
C317        C322   1.536       .  S
C317        C321   1.536       .  S
C319        H320   1.112       .  S
C319        C325   1.533       .  S
C319        C324   1.532       .  S
C319        C326   1.535       .  S
C321        C324   1.374       .  D
C321        C466   1.484       .  S
C322        C325   1.375       .  D
C322        C446   1.480       .  S
C323        C326   1.376       .  D
C323        C477   1.487       .  S
C324        C406   1.476       .  S
C325        C386   1.482       .  S
C326        C417   1.476       .  S
O327        C343   1.274       .  A
C328        O344   1.275       .  A
C328        O341   1.275       .  A
C328        C377   1.482       .  S
O329        C342   1.276       .  A
O329       Cd336   2.078       .  S
O330        C348   1.275       .  A
O330       Cd339   2.068   1_556  S
O331        C345   1.274       .  A
O331       Cd947   2.061   1_455  S
O332        C343   1.273       .  A
O332       Cd335   2.064       .  S
Zn333       O956   2.017       .  S
Zn333       O346   2.011   1_554  S
Zn333       O338   1.940   1_554  S
O334        C345   1.275       .  A
Cd335       O943   2.061       .  S
Cd335       O337   2.050   1_554  S
Cd336       O961   2.082       .  S
Cd336       O338   2.007       .  S
O337        C347   1.273       .  A
O338       Cd951   1.997   1_556  S
Cd339       O341   2.067       .  S
Cd339       O950   1.997   1_454  S
O340        C347   1.276       .  A
C342        O346   1.274       .  A
C342        C497   1.482       .  S
C343        C397   1.482       .  S
O344       Zn945   2.017   1_455  S
C345        C426   1.481       .  S
C347        C526   1.478       .  S
C348        O349   1.277       .  A
C348        C537   1.485       .  S
O349       Cd948   2.082   1_455  S
O350        C366   1.274       .  A
C351        O367   1.274       .  A
C351        O364   1.275       .  A
C351        C586   1.472       .  S
O352        C365   1.277       .  A
O352       Cd665   2.083   1_465  S
O353        C371   1.276       .  A
O353       Cd362   2.077       .  S
O354        C368   1.272       .  A
O354       Cd970   2.053       .  S
O355        C366   1.273       .  A
O355       Cd358   2.063       .  S
Zn356       O979   2.023   1_455  S
Zn356       O369   2.016       .  S
Zn356       O667   1.943   1_465  S
O357        C368   1.276       .  A
Cd358       O966   2.053   1_455  S
Cd358       O360   2.046       .  S
Cd358       O973   1.992   1_455  S
Cd359       O658   2.083       .  S
Cd359       O975   2.084       .  S
Cd359       O361   2.008       .  S
O360        C370   1.272       .  A
O361       Zn662   1.943       .  S
O361       Cd970   1.992       .  S
Cd362       O364   2.073       .  S
O363        C370   1.276       .  A
O363       Cd971   2.084   1_455  S
C365        O369   1.275       .  A
C365        C486   1.485       .  S
C366        C597   1.481       .  S
O367       Zn968   2.023       .  S
C368        C566   1.470       .  S
C370        C437   1.480       .  S
C371        O372   1.277       .  A
C371        C457   1.485       .  S
C373        C374   1.405       .  A
C373        C378   1.397       .  A
C373        H383   1.083       .  S
C374        C379   1.484       .  S
C374        C375   1.405       .  A
C375        C376   1.398       .  A
C375        H380   1.083       .  S
C376        C377   1.406       .  A
C376        H381   1.083       .  S
C377        C378   1.406       .  A
C378        H382   1.083       .  S
C379        C384   1.406       .  A
C379        C388   1.407       .  A
C384        C385   1.396       .  A
C384        H389   1.083       .  S
C385        C386   1.403       .  A
C385        H390   1.083       .  S
C386        C387   1.402       .  A
C387        C388   1.399       .  A
C387        H391   1.083       .  S
C388        H392   1.083       .  S
C393        C394   1.405       .  A
C393        C398   1.397       .  A
C393        H403   1.083       .  S
C394        C399   1.485       .  S
C394        C395   1.406       .  A
C395        C396   1.399       .  A
C395        H400   1.083       .  S
C396        C397   1.406       .  A
C396        H401   1.083       .  S
C397        C398   1.405       .  A
C398        H402   1.083       .  S
C399        C404   1.406       .  A
C399        C408   1.408       .  A
C404        C405   1.396       .  A
C404        H409   1.083       .  S
C405        C406   1.401       .  A
C405        H410   1.083       .  S
C406        C407   1.401       .  A
C407        C408   1.399       .  A
C407        H411   1.084       .  S
C408        H412   1.082       .  S
C413        C414   1.406       .  A
C413        C418   1.397       .  A
C413        H423   1.083       .  S
C414        C419   1.482       .  S
C414        C415   1.406       .  A
C415        C416   1.395       .  A
C415        H420   1.083       .  S
C416        C417   1.402       .  A
C416        H421   1.083       .  S
C417        C418   1.401       .  A
C418        H422   1.083       .  S
C419        C424   1.405       .  A
C419        C428   1.404       .  A
C424        C425   1.397       .  A
C424        H429   1.083       .  S
C425        C426   1.406       .  A
C425        H430   1.083       .  S
C426        C427   1.406       .  A
C427        C428   1.396       .  A
C427        H431   1.083       .  S
C428        H432   1.083       .  S
C433        C434   1.403       .  A
C433        C438   1.394       .  A
C433        H443   1.083       .  S
C434        C439   1.483       .  S
C434        C435   1.407       .  A
C435        C436   1.399       .  A
C435        H440   1.083       .  S
C436        C437   1.405       .  A
C436        H441   1.083       .  S
C437        C438   1.407       .  A
C438        H442   1.083       .  S
C439        C444   1.405       .  A
C439        C448   1.407       .  A
C444        C445   1.396       .  A
C444        H449   1.083       .  S
C445        C446   1.404       .  A
C445        H450   1.083       .  S
C446        C447   1.400       .  A
C447        C448   1.396       .  A
C447        H451   1.083       .  S
C448        H452   1.083       .  S
C453        C454   1.404       .  A
C453        C458   1.399       .  A
C453        H463   1.083       .  S
C454        C459   1.483       .  S
C454        C455   1.405       .  A
C455        C456   1.399       .  A
C455        H460   1.083       .  S
C456        C457   1.407       .  A
C456        H461   1.083       .  S
C457        C458   1.407       .  A
C458        H462   1.083       .  S
C459        C464   1.405       .  A
C459        C468   1.405       .  A
C464        C465   1.398       .  A
C464        H469   1.083       .  S
C465        C466   1.403       .  A
C465        H470   1.083       .  S
C466        C467   1.404       .  A
C467        C468   1.398       .  A
C467        H471   1.083       .  S
C468        H472   1.083       .  S
C473        C474   1.406       .  A
C473        C478   1.397       .  A
C473        H483   1.083       .  S
C474        C479   1.485       .  S
C474        C475   1.405       .  A
C475        C476   1.399       .  A
C475        H480   1.083       .  S
C476        C477   1.406       .  A
C476        H481   1.083       .  S
C477        C478   1.403       .  A
C478        H482   1.083       .  S
C479        C484   1.406       .  A
C479        C488   1.404       .  A
C484        C485   1.401       .  A
C484        H489   1.083       .  S
C485        C486   1.407       .  A
C485        H490   1.083       .  S
C486        C487   1.407       .  A
C487        C488   1.397       .  A
C487        H491   1.083       .  S
C488        H492   1.083       .  S
C493        C494   1.405       .  A
C493        C498   1.397       .  A
C493        H503   1.083       .  S
C494        C499   1.487       .  S
C494        C495   1.407       .  A
C495        C496   1.399       .  A
C495        H500   1.083       .  S
C496        C497   1.405       .  A
C496        H501   1.083       .  S
C497        C498   1.406       .  A
C498        H502   1.083       .  S
C499        C504   1.408       .  A
C499        C508   1.406       .  A
C504        C505   1.399       .  A
C504        H509   1.083       .  S
C505        C506   1.401       .  A
C505        H510   1.083       .  S
C506        C507   1.403       .  A
C507        C508   1.396       .  A
C507        H511   1.083       .  S
C508        H512   1.082       .  S
C513        C514   1.402       .  A
C513        C518   1.393       .  A
C513        H523   1.083       .  S
C514        C519   1.476       .  S
C514        C515   1.405       .  A
C515        C516   1.397       .  A
C515        H520   1.083       .  S
C516        C517   1.402       .  A
C516        H521   1.083       .  S
C517        C518   1.404       .  A
C518        H522   1.082       .  S
C519        C524   1.404       .  A
C519        C528   1.401       .  A
C524        C525   1.397       .  A
C524        H529   1.083       .  S
C525        C526   1.405       .  A
C525        H530   1.083       .  S
C526        C527   1.407       .  A
C527        C528   1.395       .  A
C527        H531   1.083       .  S
C528        H532   1.083       .  S
C533        C534   1.405       .  A
C533        C538   1.397       .  A
C533        H543   1.083       .  S
C534        C539   1.487       .  S
C534        C535   1.407       .  A
C535        C536   1.400       .  A
C535        H540   1.083       .  S
C536        C537   1.406       .  A
C536        H541   1.083       .  S
C537        C538   1.407       .  A
C538        H542   1.083       .  S
C539        C544   1.407       .  A
C539        C548   1.406       .  A
C544        C545   1.398       .  A
C544        H549   1.083       .  S
C545        C546   1.403       .  A
C545        H550   1.083       .  S
C546        C547   1.404       .  A
C547        C548   1.398       .  A
C547        H551   1.083       .  S
C548        H552   1.082       .  S
C553        C554   1.411       .  A
C553        C558   1.397       .  A
C553        H563   1.082       .  S
C554        C559   1.492       .  S
C554        C555   1.410       .  A
C555        C556   1.396       .  A
C555        H560   1.082       .  S
C556        C557   1.398       .  A
C556        H561   1.084       .  S
C557        C558   1.398       .  A
C558        H562   1.084       .  S
C559        C564   1.408       .  A
C559        C568   1.411       .  A
C564        C565   1.396       .  A
C564        H569   1.082       .  S
C565        C566   1.402       .  A
C565        H570   1.083       .  S
C566        C567   1.400       .  A
C567        C568   1.398       .  A
C567        H571   1.084       .  S
C568        H572   1.081       .  S
C573        C574   1.411       .  A
C573        C578   1.400       .  A
C573        H583   1.082       .  S
C574        C579   1.497       .  S
C574        C575   1.411       .  A
C575        C576   1.396       .  A
C575        H580   1.081       .  S
C576        C577   1.398       .  A
C576        H581   1.084       .  S
C577        C578   1.400       .  A
C578        H582   1.083       .  S
C579        C584   1.411       .  A
C579        C588   1.411       .  A
C584        C585   1.400       .  A
C584        H589   1.081       .  S
C585        C586   1.401       .  A
C585        H590   1.083       .  S
C586        C587   1.400       .  A
C587        C588   1.397       .  A
C587        H591   1.084       .  S
C588        H592   1.081       .  S
C593        C594   1.406       .  A
C593        C598   1.397       .  A
C593        H603   1.083       .  S
C594        C599   1.486       .  S
C594        C595   1.406       .  A
C595        C596   1.397       .  A
C595        H600   1.083       .  S
C596        C597   1.406       .  A
C596        H601   1.083       .  S
C597        C598   1.405       .  A
C598        H602   1.083       .  S
C599        C604   1.406       .  A
C599        C608   1.407       .  A
C604        C605   1.396       .  A
C604        H609   1.082       .  S
C605        C606   1.403       .  A
C605        H610   1.083       .  S
C606        C607   1.401       .  A
C607        C608   1.397       .  A
C607        H611   1.083       .  S
C608        H612   1.083       .  S
C613        H614   1.112       .  S
C613        C619   1.530       .  S
C613        C618   1.536       .  S
C613        C617   1.528       .  S
C615        H616   1.111       .  S
C615        C621   1.537       .  S
C615        C620   1.538       .  S
C615        C622   1.534       .  S
C617        C620   1.374       .  D
C617        C883   1.476       .  S
C618        C621   1.378       .  D
C618        C912   1.480       .  S
C619        C622   1.371       .  D
C619        C863   1.471       .  S
C620        C823   1.479       .  S
C621        C852   1.486       .  S
C622        C812   1.481       .  S
C623        H624   1.111       .  S
C623        C629   1.535       .  S
C623        C628   1.536       .  S
C623        C627   1.536       .  S
C625        H626   1.112       .  S
C625        C631   1.533       .  S
C625        C630   1.532       .  S
C625        C632   1.535       .  S
C627        C630   1.374       .  D
C627        C772   1.484       .  S
C628        C631   1.375       .  D
C628        C752   1.480       .  S
C629        C632   1.376       .  D
C629        C783   1.487       .  S
C630        C712   1.476       .  S
C631        C692   1.482       .  S
C632        C723   1.476       .  S
O633        C649   1.274       .  A
O633       Zn945   2.020       .  S
C634        O650   1.275       .  A
C634        O647   1.275       .  A
C634        C683   1.482       .  S
O635        C648   1.276       .  A
O635       Cd642   2.078       .  S
O636        C654   1.275       .  A
O636       Cd645   2.068   1_556  S
O637        C651   1.274       .  A
O638        C649   1.273       .  A
O638       Cd641   2.064       .  S
Zn639       O939   2.020   1_545  S
Zn639       O652   2.011   1_554  S
Zn639       O644   1.940   1_554  S
O640        C651   1.275       .  A
O640       Cd951   2.072       .  S
Cd641       O643   2.050   1_554  S
Cd641       O950   1.995   1_554  S
Cd642       O952   2.077   1_545  S
Cd642       O644   2.007       .  S
O643        C653   1.273       .  A
O644       Cd947   1.995   1_546  S
Cd645       O946   2.072   1_545  S
Cd645       O647   2.067       .  S
O646        C653   1.276       .  A
O646       Cd948   2.077       .  S
C648        O652   1.274       .  A
C648        C803   1.482       .  S
C649        C703   1.482       .  S
C651        C732   1.481       .  S
C653        C832   1.478       .  S
C654        O655   1.277       .  A
C654        C843   1.485       .  S
O656        C672   1.274       .  A
O656       Zn968   2.019   1_545  S
C657        O673   1.274       .  A
C657        O670   1.275       .  A
C657        C892   1.472       .  S
O658        C671   1.277       .  A
O659        C677   1.276       .  A
O659       Cd668   2.077       .  S
O660        C674   1.272       .  A
O661        C672   1.273       .  A
O661       Cd664   2.063       .  S
Zn662       O962   2.019       .  S
Zn662       O675   2.016       .  S
O663        C674   1.276       .  A
O663       Cd974   2.082   1_545  S
Cd664       O666   2.046       .  S
Cd665       O984   2.076   1_545  S
Cd665       O667   2.008       .  S
O666        C676   1.272       .  A
O667       Cd974   2.002   1_545  S
Cd668       O969   2.082       .  S
Cd668       O670   2.073       .  S
Cd668       O973   2.002       .  S
O669        C676   1.276       .  A
C671        O675   1.275       .  A
C671        C792   1.485       .  S
C672        C903   1.481       .  S
C674        C872   1.470       .  S
C676        C743   1.480       .  S
C677        O678   1.277       .  A
C677        C763   1.485       .  S
O678       Cd971   2.076       .  S
C679        C680   1.405       .  A
C679        C684   1.397       .  A
C679        H689   1.083       .  S
C680        C685   1.484       .  S
C680        C681   1.405       .  A
C681        C682   1.398       .  A
C681        H686   1.083       .  S
C682        C683   1.406       .  A
C682        H687   1.083       .  S
C683        C684   1.406       .  A
C684        H688   1.083       .  S
C685        C690   1.406       .  A
C685        C694   1.407       .  A
C690        C691   1.396       .  A
C690        H695   1.083       .  S
C691        C692   1.403       .  A
C691        H696   1.083       .  S
C692        C693   1.402       .  A
C693        C694   1.399       .  A
C693        H697   1.083       .  S
C694        H698   1.083       .  S
C699        C700   1.405       .  A
C699        C704   1.397       .  A
C699        H709   1.083       .  S
C700        C705   1.485       .  S
C700        C701   1.406       .  A
C701        C702   1.399       .  A
C701        H706   1.083       .  S
C702        C703   1.406       .  A
C702        H707   1.083       .  S
C703        C704   1.405       .  A
C704        H708   1.083       .  S
C705        C710   1.406       .  A
C705        C714   1.408       .  A
C710        C711   1.396       .  A
C710        H715   1.083       .  S
C711        C712   1.401       .  A
C711        H716   1.083       .  S
C712        C713   1.401       .  A
C713        C714   1.399       .  A
C713        H717   1.084       .  S
C714        H718   1.083       .  S
C719        C720   1.406       .  A
C719        C724   1.397       .  A
C719        H729   1.083       .  S
C720        C725   1.482       .  S
C720        C721   1.406       .  A
C721        C722   1.395       .  A
C721        H726   1.083       .  S
C722        C723   1.402       .  A
C722        H727   1.083       .  S
C723        C724   1.401       .  A
C724        H728   1.083       .  S
C725        C730   1.405       .  A
C725        C734   1.404       .  A
C730        C731   1.397       .  A
C730        H735   1.083       .  S
C731        C732   1.406       .  A
C731        H736   1.083       .  S
C732        C733   1.406       .  A
C733        C734   1.396       .  A
C733        H737   1.083       .  S
C734        H738   1.083       .  S
C739        C740   1.403       .  A
C739        C744   1.394       .  A
C739        H749   1.083       .  S
C740        C745   1.483       .  S
C740        C741   1.407       .  A
C741        C742   1.399       .  A
C741        H746   1.083       .  S
C742        C743   1.405       .  A
C742        H747   1.083       .  S
C743        C744   1.407       .  A
C744        H748   1.083       .  S
C745        C750   1.405       .  A
C745        C754   1.407       .  A
C750        C751   1.396       .  A
C750        H755   1.083       .  S
C751        C752   1.404       .  A
C751        H756   1.083       .  S
C752        C753   1.400       .  A
C753        C754   1.396       .  A
C753        H757   1.083       .  S
C754        H758   1.083       .  S
C759        C760   1.404       .  A
C759        C764   1.399       .  A
C759        H769   1.083       .  S
C760        C765   1.483       .  S
C760        C761   1.405       .  A
C761        C762   1.399       .  A
C761        H766   1.083       .  S
C762        C763   1.407       .  A
C762        H767   1.083       .  S
C763        C764   1.407       .  A
C764        H768   1.083       .  S
C765        C770   1.405       .  A
C765        C774   1.405       .  A
C770        C771   1.398       .  A
C770        H775   1.083       .  S
C771        C772   1.403       .  A
C771        H776   1.083       .  S
C772        C773   1.404       .  A
C773        C774   1.398       .  A
C773        H777   1.083       .  S
C774        H778   1.083       .  S
C779        C780   1.406       .  A
C779        C784   1.397       .  A
C779        H789   1.083       .  S
C780        C785   1.485       .  S
C780        C781   1.405       .  A
C781        C782   1.399       .  A
C781        H786   1.083       .  S
C782        C783   1.406       .  A
C782        H787   1.083       .  S
C783        C784   1.403       .  A
C784        H788   1.083       .  S
C785        C790   1.406       .  A
C785        C794   1.404       .  A
C790        C791   1.401       .  A
C790        H795   1.083       .  S
C791        C792   1.407       .  A
C791        H796   1.083       .  S
C792        C793   1.407       .  A
C793        C794   1.397       .  A
C793        H797   1.083       .  S
C794        H798   1.083       .  S
C799        C800   1.405       .  A
C799        C804   1.397       .  A
C799        H809   1.083       .  S
C800        C805   1.487       .  S
C800        C801   1.407       .  A
C801        C802   1.399       .  A
C801        H806   1.083       .  S
C802        C803   1.405       .  A
C802        H807   1.083       .  S
C803        C804   1.406       .  A
C804        H808   1.083       .  S
C805        C810   1.408       .  A
C805        C814   1.406       .  A
C810        C811   1.399       .  A
C810        H815   1.083       .  S
C811        C812   1.401       .  A
C811        H816   1.083       .  S
C812        C813   1.403       .  A
C813        C814   1.396       .  A
C813        H817   1.083       .  S
C814        H818   1.082       .  S
C819        C820   1.402       .  A
C819        C824   1.393       .  A
C819        H829   1.083       .  S
C820        C825   1.476       .  S
C820        C821   1.405       .  A
C821        C822   1.397       .  A
C821        H826   1.083       .  S
C822        C823   1.402       .  A
C822        H827   1.083       .  S
C823        C824   1.404       .  A
C824        H828   1.082       .  S
C825        C830   1.404       .  A
C825        C834   1.401       .  A
C830        C831   1.397       .  A
C830        H835   1.083       .  S
C831        C832   1.405       .  A
C831        H836   1.083       .  S
C832        C833   1.407       .  A
C833        C834   1.395       .  A
C833        H837   1.083       .  S
C834        H838   1.083       .  S
C839        C840   1.405       .  A
C839        C844   1.397       .  A
C839        H849   1.083       .  S
C840        C845   1.487       .  S
C840        C841   1.407       .  A
C841        C842   1.400       .  A
C841        H846   1.083       .  S
C842        C843   1.406       .  A
C842        H847   1.083       .  S
C843        C844   1.407       .  A
C844        H848   1.083       .  S
C845        C850   1.407       .  A
C845        C854   1.406       .  A
C850        C851   1.398       .  A
C850        H855   1.083       .  S
C851        C852   1.403       .  A
C851        H856   1.083       .  S
C852        C853   1.404       .  A
C853        C854   1.398       .  A
C853        H857   1.083       .  S
C854        H858   1.082       .  S
C859        C860   1.411       .  A
C859        C864   1.397       .  A
C859        H869   1.082       .  S
C860        C865   1.492       .  S
C860        C861   1.410       .  A
C861        C862   1.396       .  A
C861        H866   1.082       .  S
C862        C863   1.398       .  A
C862        H867   1.084       .  S
C863        C864   1.398       .  A
C864        H868   1.084       .  S
C865        C870   1.408       .  A
C865        C874   1.411       .  A
C870        C871   1.396       .  A
C870        H875   1.082       .  S
C871        C872   1.402       .  A
C871        H876   1.083       .  S
C872        C873   1.400       .  A
C873        C874   1.398       .  A
C873        H877   1.084       .  S
C874        H878   1.081       .  S
C879        C880   1.411       .  A
C879        C884   1.400       .  A
C879        H889   1.082       .  S
C880        C885   1.497       .  S
C880        C881   1.411       .  A
C881        C882   1.396       .  A
C881        H886   1.081       .  S
C882        C883   1.398       .  A
C882        H887   1.084       .  S
C883        C884   1.400       .  A
C884        H888   1.083       .  S
C885        C890   1.411       .  A
C885        C894   1.411       .  A
C890        C891   1.400       .  A
C890        H895   1.081       .  S
C891        C892   1.401       .  A
C891        H896   1.083       .  S
C892        C893   1.400       .  A
C893        C894   1.397       .  A
C893        H897   1.084       .  S
C894        H898   1.081       .  S
C899        C900   1.406       .  A
C899        C904   1.397       .  A
C899        H909   1.083       .  S
C900        C905   1.486       .  S
C900        C901   1.406       .  A
C901        C902   1.397       .  A
C901        H906   1.083       .  S
C902        C903   1.406       .  A
C902        H907   1.083       .  S
C903        C904   1.405       .  A
C904        H908   1.083       .  S
C905        C910   1.406       .  A
C905        C914   1.407       .  A
C910        C911   1.396       .  A
C910        H915   1.082       .  S
C911        C912   1.403       .  A
C911        H916   1.083       .  S
C912        C913   1.401       .  A
C913        C914   1.397       .  A
C913        H917   1.083       .  S
C914        H918   1.083       .  S
C919        H920   1.112       .  S
C919        C925   1.530       .  S
C919        C924   1.536       .  S
C919        C923   1.528       .  S
C921        H922   1.111       .  S
C921        C927   1.537       .  S
C921        C926   1.538       .  S
C921        C928   1.534       .  S
C923        C926   1.374       .  D
C923       C1189   1.476       .  S
C924        C927   1.378       .  D
C924       C1218   1.480       .  S
C925        C928   1.371       .  D
C925       C1169   1.471       .  S
C926       C1129   1.479       .  S
C927       C1158   1.486       .  S
C928       C1118   1.481       .  S
C929        H930   1.111       .  S
C929        C935   1.535       .  S
C929        C934   1.536       .  S
C929        C933   1.536       .  S
C931        H932   1.112       .  S
C931        C937   1.533       .  S
C931        C936   1.532       .  S
C931        C938   1.535       .  S
C933        C936   1.374       .  D
C933       C1078   1.484       .  S
C934        C937   1.375       .  D
C934       C1058   1.480       .  S
C935        C938   1.376       .  D
C935       C1089   1.487       .  S
C936       C1018   1.476       .  S
C937        C998   1.482       .  S
C938       C1029   1.476       .  S
O939        C955   1.274       .  A
C940        O956   1.275       .  A
C940        O953   1.275       .  A
C940        C989   1.482       .  S
O941        C954   1.276       .  A
O941       Cd948   2.078       .  S
O942        C960   1.275       .  A
O942       Cd951   2.068   1_556  S
O943        C957   1.274       .  A
O944        C955   1.273       .  A
O944       Cd947   2.064       .  S
Zn945       O958   2.011   1_554  S
Zn945       O950   1.940   1_554  S
O946        C957   1.275       .  A
Cd947       O949   2.050   1_554  S
Cd948       O950   2.007       .  S
O949        C959   1.273       .  A
Cd951       O953   2.067       .  S
O952        C959   1.276       .  A
C954        O958   1.274       .  A
C954       C1109   1.482       .  S
C955       C1009   1.482       .  S
C957       C1038   1.481       .  S
C959       C1138   1.478       .  S
C960        O961   1.277       .  A
C960       C1149   1.485       .  S
O962        C978   1.274       .  A
C963        O979   1.274       .  A
C963        O976   1.275       .  A
C963       C1198   1.472       .  S
O964        C977   1.277       .  A
O965        C983   1.276       .  A
O965       Cd974   2.077       .  S
O966        C980   1.272       .  A
O967        C978   1.273       .  A
O967       Cd970   2.063       .  S
Zn968       O981   2.016       .  S
O969        C980   1.276       .  A
Cd970       O972   2.046       .  S
Cd971       O973   2.008       .  S
O972        C982   1.272       .  A
Cd974       O976   2.073       .  S
O975        C982   1.276       .  A
C977        O981   1.275       .  A
C977       C1098   1.485       .  S
C978       C1209   1.481       .  S
C980       C1178   1.470       .  S
C982       C1049   1.480       .  S
C983        O984   1.277       .  A
C983       C1069   1.485       .  S
C985        C986   1.405       .  A
C985        C990   1.397       .  A
C985        H995   1.083       .  S
C986        C991   1.484       .  S
C986        C987   1.405       .  A
C987        C988   1.398       .  A
C987        H992   1.083       .  S
C988        C989   1.406       .  A
C988        H993   1.083       .  S
C989        C990   1.406       .  A
C990        H994   1.083       .  S
C991        C996   1.406       .  A
C991       C1000   1.407       .  A
C996        C997   1.396       .  A
C996       H1001   1.083       .  S
C997        C998   1.403       .  A
C997       H1002   1.083       .  S
C998        C999   1.402       .  A
C999       C1000   1.399       .  A
C999       H1003   1.083       .  S
C1000      H1004   1.083       .  S
C1005      C1006   1.405       .  A
C1005      C1010   1.397       .  A
C1005      H1015   1.083       .  S
C1006      C1011   1.485       .  S
C1006      C1007   1.406       .  A
C1007      C1008   1.399       .  A
C1007      H1012   1.083       .  S
C1008      C1009   1.406       .  A
C1008      H1013   1.083       .  S
C1009      C1010   1.405       .  A
C1010      H1014   1.083       .  S
C1011      C1016   1.406       .  A
C1011      C1020   1.408       .  A
C1016      C1017   1.396       .  A
C1016      H1021   1.083       .  S
C1017      C1018   1.401       .  A
C1017      H1022   1.083       .  S
C1018      C1019   1.401       .  A
C1019      C1020   1.399       .  A
C1019      H1023   1.084       .  S
C1020      H1024   1.083       .  S
C1025      C1026   1.406       .  A
C1025      C1030   1.397       .  A
C1025      H1035   1.083       .  S
C1026      C1031   1.482       .  S
C1026      C1027   1.406       .  A
C1027      C1028   1.395       .  A
C1027      H1032   1.083       .  S
C1028      C1029   1.402       .  A
C1028      H1033   1.083       .  S
C1029      C1030   1.401       .  A
C1030      H1034   1.083       .  S
C1031      C1036   1.405       .  A
C1031      C1040   1.404       .  A
C1036      C1037   1.397       .  A
C1036      H1041   1.083       .  S
C1037      C1038   1.406       .  A
C1037      H1042   1.083       .  S
C1038      C1039   1.406       .  A
C1039      C1040   1.396       .  A
C1039      H1043   1.083       .  S
C1040      H1044   1.083       .  S
C1045      C1046   1.403       .  A
C1045      C1050   1.394       .  A
C1045      H1055   1.083       .  S
C1046      C1051   1.483       .  S
C1046      C1047   1.407       .  A
C1047      C1048   1.399       .  A
C1047      H1052   1.083       .  S
C1048      C1049   1.405       .  A
C1048      H1053   1.083       .  S
C1049      C1050   1.407       .  A
C1050      H1054   1.083       .  S
C1051      C1056   1.405       .  A
C1051      C1060   1.407       .  A
C1056      C1057   1.396       .  A
C1056      H1061   1.083       .  S
C1057      C1058   1.404       .  A
C1057      H1062   1.083       .  S
C1058      C1059   1.400       .  A
C1059      C1060   1.396       .  A
C1059      H1063   1.083       .  S
C1060      H1064   1.083       .  S
C1065      C1066   1.404       .  A
C1065      C1070   1.399       .  A
C1065      H1075   1.083       .  S
C1066      C1071   1.483       .  S
C1066      C1067   1.405       .  A
C1067      C1068   1.399       .  A
C1067      H1072   1.083       .  S
C1068      C1069   1.407       .  A
C1068      H1073   1.083       .  S
C1069      C1070   1.407       .  A
C1070      H1074   1.083       .  S
C1071      C1076   1.405       .  A
C1071      C1080   1.405       .  A
C1076      C1077   1.398       .  A
C1076      H1081   1.083       .  S
C1077      C1078   1.403       .  A
C1077      H1082   1.083       .  S
C1078      C1079   1.404       .  A
C1079      C1080   1.398       .  A
C1079      H1083   1.083       .  S
C1080      H1084   1.083       .  S
C1085      C1086   1.406       .  A
C1085      C1090   1.397       .  A
C1085      H1095   1.083       .  S
C1086      C1091   1.485       .  S
C1086      C1087   1.405       .  A
C1087      C1088   1.399       .  A
C1087      H1092   1.083       .  S
C1088      C1089   1.406       .  A
C1088      H1093   1.083       .  S
C1089      C1090   1.403       .  A
C1090      H1094   1.083       .  S
C1091      C1096   1.406       .  A
C1091      C1100   1.404       .  A
C1096      C1097   1.401       .  A
C1096      H1101   1.083       .  S
C1097      C1098   1.407       .  A
C1097      H1102   1.083       .  S
C1098      C1099   1.407       .  A
C1099      C1100   1.397       .  A
C1099      H1103   1.083       .  S
C1100      H1104   1.083       .  S
C1105      C1106   1.405       .  A
C1105      C1110   1.397       .  A
C1105      H1115   1.083       .  S
C1106      C1111   1.487       .  S
C1106      C1107   1.407       .  A
C1107      C1108   1.399       .  A
C1107      H1112   1.083       .  S
C1108      C1109   1.405       .  A
C1108      H1113   1.083       .  S
C1109      C1110   1.406       .  A
C1110      H1114   1.083       .  S
C1111      C1116   1.408       .  A
C1111      C1120   1.406       .  A
C1116      C1117   1.399       .  A
C1116      H1121   1.083       .  S
C1117      C1118   1.401       .  A
C1117      H1122   1.083       .  S
C1118      C1119   1.403       .  A
C1119      C1120   1.396       .  A
C1119      H1123   1.083       .  S
C1120      H1124   1.082       .  S
C1125      C1126   1.402       .  A
C1125      C1130   1.393       .  A
C1125      H1135   1.083       .  S
C1126      C1131   1.476       .  S
C1126      C1127   1.405       .  A
C1127      C1128   1.397       .  A
C1127      H1132   1.083       .  S
C1128      C1129   1.402       .  A
C1128      H1133   1.083       .  S
C1129      C1130   1.404       .  A
C1130      H1134   1.082       .  S
C1131      C1136   1.404       .  A
C1131      C1140   1.401       .  A
C1136      C1137   1.397       .  A
C1136      H1141   1.083       .  S
C1137      C1138   1.405       .  A
C1137      H1142   1.083       .  S
C1138      C1139   1.407       .  A
C1139      C1140   1.395       .  A
C1139      H1143   1.083       .  S
C1140      H1144   1.083       .  S
C1145      C1146   1.405       .  A
C1145      C1150   1.397       .  A
C1145      H1155   1.083       .  S
C1146      C1151   1.487       .  S
C1146      C1147   1.407       .  A
C1147      C1148   1.400       .  A
C1147      H1152   1.083       .  S
C1148      C1149   1.406       .  A
C1148      H1153   1.083       .  S
C1149      C1150   1.407       .  A
C1150      H1154   1.083       .  S
C1151      C1156   1.407       .  A
C1151      C1160   1.406       .  A
C1156      C1157   1.398       .  A
C1156      H1161   1.083       .  S
C1157      C1158   1.403       .  A
C1157      H1162   1.083       .  S
C1158      C1159   1.404       .  A
C1159      C1160   1.398       .  A
C1159      H1163   1.083       .  S
C1160      H1164   1.082       .  S
C1165      C1166   1.411       .  A
C1165      C1170   1.397       .  A
C1165      H1175   1.082       .  S
C1166      C1171   1.492       .  S
C1166      C1167   1.410       .  A
C1167      C1168   1.396       .  A
C1167      H1172   1.082       .  S
C1168      C1169   1.398       .  A
C1168      H1173   1.084       .  S
C1169      C1170   1.398       .  A
C1170      H1174   1.084       .  S
C1171      C1176   1.408       .  A
C1171      C1180   1.411       .  A
C1176      C1177   1.396       .  A
C1176      H1181   1.082       .  S
C1177      C1178   1.402       .  A
C1177      H1182   1.083       .  S
C1178      C1179   1.400       .  A
C1179      C1180   1.398       .  A
C1179      H1183   1.084       .  S
C1180      H1184   1.081       .  S
C1185      C1186   1.411       .  A
C1185      C1190   1.400       .  A
C1185      H1195   1.082       .  S
C1186      C1191   1.497       .  S
C1186      C1187   1.411       .  A
C1187      C1188   1.396       .  A
C1187      H1192   1.081       .  S
C1188      C1189   1.398       .  A
C1188      H1193   1.084       .  S
C1189      C1190   1.400       .  A
C1190      H1194   1.083       .  S
C1191      C1196   1.411       .  A
C1191      C1200   1.411       .  A
C1196      C1197   1.400       .  A
C1196      H1201   1.081       .  S
C1197      C1198   1.401       .  A
C1197      H1202   1.083       .  S
C1198      C1199   1.400       .  A
C1199      C1200   1.397       .  A
C1199      H1203   1.084       .  S
C1200      H1204   1.081       .  S
C1205      C1206   1.406       .  A
C1205      C1210   1.397       .  A
C1205      H1215   1.083       .  S
C1206      C1211   1.486       .  S
C1206      C1207   1.406       .  A
C1207      C1208   1.397       .  A
C1207      H1212   1.083       .  S
C1208      C1209   1.406       .  A
C1208      H1213   1.083       .  S
C1209      C1210   1.405       .  A
C1210      H1214   1.083       .  S
C1211      C1216   1.406       .  A
C1211      C1220   1.407       .  A
C1216      C1217   1.396       .  A
C1216      H1221   1.082       .  S
C1217      C1218   1.403       .  A
C1217      H1222   1.083       .  S
C1218      C1219   1.401       .  A
C1219      C1220   1.397       .  A
C1219      H1223   1.083       .  S
C1220      H1224   1.083       .  S
