geometry optimzed in LAMMPS
_audit_creation_date              2020-12-01 
_audit_creation_method            'lammps2cif' 
_symmetry_space_group_name_H-M    'P1' 
_symmetry_Int_Tables_number       1 
_symmetry_cell_setting            triclinic 
loop_ 
_symmetry_equiv_pos_as_xyz 
  x,y,z 
_cell_length_a                    28.28477094 
_cell_length_b                    28.326600722793053 
_cell_length_c                    29.210151352747964 
_cell_angle_alpha                 89.38144035801879 
_cell_angle_beta                  91.70238771075046 
_cell_angle_gamma                 89.8786691928391 
loop_ 
_atom_site_label 
_atom_site_type_symbol 
_atom_site_fract_x 
_atom_site_fract_y 
_atom_site_fract_z 
_atom_site_charge 
O1          O  0.05796483  0.02738680  0.45584244    -0.74500
O2          O  0.01744272  0.43811333  0.54660882    -0.74500
O3          O  0.01737507  0.44203345  0.45378229    -0.74600
O4          O  0.06071274  0.02388187  0.54922641    -0.74600
O5          O  0.49003818  0.05894752  0.54936786    -0.74500
O6          O  0.44688495  0.47766956  0.45131348    -0.74500
O7          O  0.44664905  0.47297851  0.54615077    -0.74500
O8          O  0.48753899  0.06305333  0.45718429    -0.74600
Ni9        Ni  0.04084154  0.48164397  0.50157536     1.25400
Ni10       Ni  0.46509056  0.01917689  0.50122578     1.25400
C11         C  0.02848885  0.05868970  0.44048340     0.87700
C12         C  0.47545576  0.44134735  0.56182197     0.87600
C13         C  0.47646704  0.44820289  0.43496046     0.87700
C14         C  0.03287069  0.05504662  0.56491628     0.87800
C15         C  0.48920232  0.45663957  0.71727526     0.86400
C16         C  0.02838223  0.44248342  0.75304312    -0.53800
C17         C  0.04630402  0.48003337  0.77720154     0.09400
C18         C  0.02243398  0.02779590  0.76482852     0.20300
C19         C  0.45177280  0.48192270  0.74435181    -0.54500
C20         C  0.46835347  0.01856202  0.77052719     0.09500
C21         C  0.01274429  0.49497806  0.68947986    -0.54100
C22         C  0.03025984  0.03234754  0.71293321     0.10000
H23         H  0.04152581  0.40685978  0.75864248     0.14600
H24         H  0.03663856  0.05799293  0.78482289     0.00300
H25         H  0.41602816  0.46828812  0.74595251     0.14900
H26         H  0.01519603  0.99236176  0.65268515     0.14700
C27         C  0.06007080  0.48698879  0.21913314     0.86400
C28         C  0.07409388  0.02423247  0.25549355    -0.53800
C29         C  0.03612941  0.04148503  0.27843622     0.09400
C30         C  0.48834238  0.01856469  0.26455124     0.20300
C31         C  0.03415287  0.44859764  0.24519356    -0.54500
C32         C  0.49727874  0.46420729  0.27038626     0.09500
C33         C  0.02231864  0.01249487  0.19029395    -0.54100
C34         C  0.48456119  0.02889895  0.21256620     0.10000
H35         H  0.10984165  0.03663945  0.26216584     0.14600
H36         H  0.45786688  0.03204999  0.28366312     0.00300
H37         H  0.04763286  0.41270322  0.24699253     0.14900
H38         H  0.02546149  0.01681312  0.15364921     0.14700
C39         C  0.47790185  0.35452158  0.34441454     0.03100
C40         C  0.47182145  0.37578361  0.38713142    -0.13100
C41         C  0.46718029  0.42506274  0.39057492     0.00600
C42         C  0.46911672  0.45336191  0.35077337    -0.11600
C43         C  0.47852014  0.43341867  0.30808529     0.03100
C44         C  0.48042314  0.38352523  0.30504327    -0.11000
H45         H  0.47362949  0.35421357  0.41801633     0.08700
H46         H  0.46964628  0.49132524  0.35439186     0.06200
H47         H  0.48722267  0.36710734  0.27259203     0.06000
O48         O  0.04090854  0.45489820  0.95517487    -0.74500
O49         O  0.45564328  0.49619786  0.04686857    -0.74500
O50         O  0.45524841  0.49567213  0.95398441    -0.74600
O51         O  0.04179596  0.45299473  0.04887255    -0.74600
O52         O  0.07663362  0.02356587  0.04957749    -0.74500
O53         O  0.49073891  0.06593510  0.95230247    -0.74500
O54         O  0.49028244  0.06684785  0.04697207    -0.74500
O55         O  0.07652761  0.02515538  0.95726847    -0.74600
Ni56       Ni  0.99723683  0.47244173  0.00140943     1.25400
Ni57       Ni  0.03460043  0.04801360  0.00176528     1.25400
C58         C  0.07134035  0.98425468  0.93992675     0.87700
C59         C  0.45935185  0.03828031  0.06243440     0.87600
C60         C  0.46038269  0.03649313  0.93577977     0.87700
C61         C  0.07344581  0.48104293  0.06490987     0.87800
C62         C  0.36836447  0.02936423  0.15280481     0.03100
C63         C  0.39889328  0.03474750  0.19117549    -0.13100
C64         C  0.44501444  0.05044758  0.18471170     0.00600
C65         C  0.45608528  0.06894233  0.14112208    -0.11600
C66         C  0.43158414  0.05151690  0.10261703     0.03100
C67         C  0.38601848  0.03381613  0.10845486    -0.11000
H68         H  0.38814005  0.02265609  0.22461656     0.08700
H69         H  0.49078911  0.08410845  0.13637922     0.06200
H70         H  0.36505748  0.02215137  0.07905263     0.06000
C71         C  0.02189480  0.15302078  0.34830655     0.03100
C72         C  0.02554135  0.13255335  0.39242989    -0.13100
C73         C  0.03808238  0.08474792  0.39820110     0.00600
C74         C  0.04763153  0.05757991  0.36000185    -0.11600
C75         C  0.04017054  0.07585975  0.31597687     0.03100
C76         C  0.02787008  0.12392037  0.30985208    -0.11000
H77         H  0.01719322  0.15337943  0.42202863     0.08700
H78         H  0.05485519  0.02011901  0.36434229     0.06200
H79         H  0.02163962  0.13817345  0.27562315     0.06000
C80         C  0.17252723  0.48196527  0.15316726     0.03100
C81         C  0.14498771  0.47875498  0.19222637    -0.13100
C82         C  0.09700762  0.46758759  0.18717839     0.00600
C83         C  0.08059678  0.45052438  0.14420675    -0.11600
C84         C  0.10328470  0.46615688  0.10497685     0.03100
C85         C  0.15064678  0.47991895  0.10938949    -0.11000
H86         H  0.16032182  0.48754843  0.22542253     0.08700
H87         H  0.04417209  0.43893572  0.14047569     0.06200
H88         H  0.16984782  0.49044371  0.07938561     0.06000
C89         C  0.36211731  0.03660097  0.84553795     0.03100
C90         C  0.38923526  0.03497186  0.80593782    -0.13100
C91         C  0.43928533  0.03679104  0.80887129     0.00600
C92         C  0.46126125  0.04530698  0.85179715    -0.11600
C93         C  0.43486587  0.04608623  0.89183345     0.03100
C94         C  0.38538567  0.04145049  0.88846576    -0.11000
H95         H  0.37132635  0.02859987  0.77333201     0.08700
H96         H  0.49945131  0.04492320  0.85517637     0.06200
H97         H  0.36526159  0.03871069  0.91939129     0.06000
C98         C  0.48269486  0.34388660  0.64962790     0.03100
C99         C  0.47740042  0.36492947  0.60597692    -0.12700
C100        C  0.46274917  0.41207579  0.60192536     0.00600
C101        C  0.44987305  0.43553409  0.64164253    -0.11600
C102        C  0.46907906  0.41958760  0.68442003     0.03100
C103        C  0.48118502  0.37183030  0.68884223    -0.11000
H104        H  0.48635599  0.34534118  0.57574296     0.08700
H105        H  0.43790964  0.47187247  0.63827763     0.06200
H106        H  0.49187578  0.35684898  0.72176842     0.06000
C107        C  0.03102710  0.14826126  0.65482102     0.03100
C108        C  0.03214708  0.12943935  0.61053950    -0.13100
C109        C  0.04859304  0.08345196  0.60472358     0.00600
C110        C  0.06867779  0.05993073  0.64282776    -0.11600
C111        C  0.05188183  0.07157542  0.68637838     0.03100
C112        C  0.03734010  0.11819277  0.69319758    -0.11000
H113        H  0.01901130  0.14989719  0.58123817     0.08700
H114        H  0.08351481  0.02507280  0.63789647     0.06200
H115        H  0.02687607  0.12967499  0.72669078     0.06000
C116        C  0.16134058  0.49062587  0.84739671     0.03100
C117        C  0.13025619  0.48646463  0.80884169    -0.13100
C118        C  0.08218769  0.47526267  0.81473255     0.00600
C119        C  0.06578986  0.46714289  0.85859382    -0.11600
C120        C  0.09508484  0.47477590  0.89707619     0.03100
C121        C  0.14291925  0.48618662  0.89150076    -0.11000
H122        H  0.14304014  0.49309478  0.77480283     0.08700
H123        H  0.02836355  0.46067182  0.86286559     0.06200
H124        H  0.16537012  0.49326891  0.92133379     0.06000
C125        C  0.05490271  0.23214611  0.65816170    -0.01900
C126        C  0.01878062  0.19809658  0.65986281     0.07800
C127        C  0.47106476  0.21189350  0.66079115    -0.02000
C128        C  0.45928817  0.25996141  0.65773133    -0.02000
C129        C  0.49532310  0.29390133  0.65427445     0.07900
C130        C  0.04316552  0.28022245  0.65551928    -0.02200
Br131      Br  0.09226148  0.32734558  0.65256132    -0.00800
Br132      Br  0.12032178  0.21263799  0.65838824    -0.00800
Br133      Br  0.39389890  0.27946574  0.65709342    -0.00800
Br134      Br  0.42218952  0.16478053  0.66527783    -0.00800
C135        C  0.24713973  0.46668213  0.85090117    -0.01900
C136        C  0.21259734  0.50204705  0.84263363     0.07800
C137        C  0.22737200  0.04871001  0.83331053    -0.02000
C138        C  0.27613536  0.06002905  0.83348009    -0.02000
C139        C  0.31055931  0.02484048  0.84296347     0.07900
C140        C  0.29576385  0.47794919  0.85081260    -0.02200
Br141      Br  0.34245856  0.42894897  0.86130871    -0.00800
Br142      Br  0.22768178  0.40252253  0.86245334    -0.00800
Br143      Br  0.29598918  0.12392171  0.82165229    -0.00800
Br144      Br  0.18065394  0.09745775  0.82200797    -0.00800
C145        C  0.28548813  0.05081204  0.16784600    -0.01900
C146        C  0.31902423  0.01569405  0.15851356     0.07800
C147        C  0.30487364  0.46873348  0.15125459    -0.02000
C148        C  0.25661678  0.45746250  0.15048980    -0.02000
C149        C  0.22293020  0.49308936  0.15771200     0.07900
C150        C  0.23731215  0.03942987  0.16777236    -0.02200
Br151      Br  0.19093653  0.08755300  0.17968419    -0.00800
Br152      Br  0.30551102  0.11492512  0.17867286    -0.00800
Br153      Br  0.23647884  0.39340483  0.13944785    -0.00800
Br154      Br  0.35163160  0.42018623  0.14253474    -0.00800
C155        C  0.45212792  0.26901722  0.34690534    -0.01900
C156        C  0.48843761  0.30269885  0.34212930     0.07800
C157        C  0.03543747  0.28678156  0.33728573    -0.02000
C158        C  0.04597486  0.23793127  0.33775194    -0.02000
C159        C  0.00977399  0.20431184  0.34316060     0.07900
C160        C  0.46271810  0.22012478  0.34740559    -0.02200
Br161      Br  0.41281418  0.17454809  0.35431558    -0.00800
Br162      Br  0.38778662  0.29009416  0.35288319    -0.00800
Br163      Br  0.11051524  0.21682009  0.33291203    -0.00800
Br164      Br  0.08598789  0.33203344  0.33240937    -0.00800
O165        O  0.05796489  0.52738685  0.45584247    -0.74500
O166        O  0.01744276  0.93811336  0.54660886    -0.74500
O167        O  0.01737515  0.94203349  0.45378227    -0.74600
O168        O  0.06071270  0.52388175  0.54922646    -0.74600
O169        O  0.49003814  0.55894740  0.54936798    -0.74500
O170        O  0.44688487  0.97766941  0.45131353    -0.74500
O171        O  0.44664907  0.97297850  0.54615081    -0.74500
O172        O  0.48753907  0.56305342  0.45718433    -0.74600
Ni173      Ni  0.04084153  0.98164402  0.50157536     1.25400
Ni174      Ni  0.46509057  0.51917693  0.50122578     1.25400
C175        C  0.02848885  0.55868975  0.44048342     0.87700
C176        C  0.47545583  0.94134731  0.56182197     0.87600
C177        C  0.47646702  0.94820284  0.43496048     0.87700
C178        C  0.03287063  0.55504653  0.56491629     0.87800
C179        C  0.48920234  0.95663956  0.71727524     0.86400
C180        C  0.02838241  0.94248343  0.75304306    -0.53800
C181        C  0.04630413  0.98003340  0.77720147     0.09400
C182        C  0.02243394  0.52779590  0.76482854     0.20300
C183        C  0.45177257  0.98192254  0.74435182    -0.54500
C184        C  0.46835347  0.51856207  0.77052718     0.09500
C185        C  0.01274423  0.99497810  0.68947986    -0.54100
C186        C  0.03025993  0.53234748  0.71293324     0.10000
H187        H  0.04152602  0.90685986  0.75864242     0.14600
H188        H  0.03663853  0.55799290  0.78482291     0.00300
H189        H  0.41602932  0.96828840  0.74595248     0.14900
H190        H  0.01519604  0.49236173  0.65268524     0.14700
C191        C  0.06007075  0.98698877  0.21913312     0.86400
C192        C  0.07409409  0.52423255  0.25549361    -0.53800
C193        C  0.03612939  0.54148502  0.27843623     0.09400
C194        C  0.48834232  0.51856475  0.26455131     0.20300
C195        C  0.03415281  0.94859764  0.24519354    -0.54500
C196        C  0.49727881  0.96420730  0.27038625     0.09500
C197        C  0.02231873  0.51249491  0.19029394    -0.54100
C198        C  0.48456117  0.52889898  0.21256621     0.10000
H199        H  0.10984078  0.53663921  0.26216573     0.14600
H200        H  0.45786713  0.53205000  0.28366306     0.00300
H201        H  0.04763281  0.91270319  0.24699253     0.14900
H202        H  0.02546158  0.51681317  0.15364936     0.14700
C203        C  0.47790178  0.85452158  0.34441449     0.03100
C204        C  0.47182141  0.87578351  0.38713150    -0.13100
C205        C  0.46718036  0.92506270  0.39057490     0.00600
C206        C  0.46911678  0.95336208  0.35077340    -0.11600
C207        C  0.47852025  0.93341867  0.30808530     0.03100
C208        C  0.48042313  0.88352527  0.30504327    -0.11000
H209        H  0.47362935  0.85421382  0.41801579     0.08700
H210        H  0.46964625  0.99132436  0.35439181     0.06200
H211        H  0.48722262  0.86710739  0.27259200     0.06000
O212        O  0.04090850  0.95489823  0.95517486    -0.74500
O213        O  0.45564326  0.99619788  0.04686856    -0.74500
O214        O  0.45524830  0.99567219  0.95398442    -0.74600
O215        O  0.04179592  0.95299478  0.04887257    -0.74600
O216        O  0.07663356  0.52356588  0.04957751    -0.74500
O217        O  0.49073887  0.56593513  0.95230247    -0.74500
O218        O  0.49028237  0.56684788  0.04697204    -0.74500
O219        O  0.07652752  0.52515542  0.95726843    -0.74600
Ni220      Ni  0.99723682  0.97244173  0.00140942     1.25400
Ni221      Ni  0.03460036  0.54801364  0.00176528     1.25400
C222        C  0.07134032  0.48425468  0.93992673     0.87700
C223        C  0.45935183  0.53828034  0.06243438     0.87600
C224        C  0.46038274  0.53649308  0.93577976     0.87700
C225        C  0.07344581  0.98104296  0.06490987     0.87800
C226        C  0.36836448  0.52936420  0.15280481     0.03100
C227        C  0.39889330  0.53474756  0.19117543    -0.13100
C228        C  0.44501439  0.55044763  0.18471173     0.00600
C229        C  0.45608554  0.56894242  0.14112204    -0.11600
C230        C  0.43158409  0.55151693  0.10261702     0.03100
C231        C  0.38601847  0.53381620  0.10845485    -0.11000
H232        H  0.38813997  0.52265597  0.22461675     0.08700
H233        H  0.49078794  0.58410785  0.13637936     0.06200
H234        H  0.36505744  0.52215143  0.07905264     0.06000
C235        C  0.02189472  0.65302078  0.34830652     0.03100
C236        C  0.02554126  0.63255338  0.39242988    -0.13100
C237        C  0.03808232  0.58474792  0.39820111     0.00600
C238        C  0.04763141  0.55758007  0.36000186    -0.11600
C239        C  0.04017048  0.57585971  0.31597688     0.03100
C240        C  0.02786998  0.62392031  0.30985214    -0.11000
H241        H  0.01719314  0.65337949  0.42202864     0.08700
H242        H  0.05485528  0.52011818  0.36434243     0.06200
H243        H  0.02163944  0.63817350  0.27562276     0.06000
C244        C  0.17252721  0.98196519  0.15316729     0.03100
C245        C  0.14498771  0.97875479  0.19222637    -0.13100
C246        C  0.09700758  0.96758756  0.18717839     0.00600
C247        C  0.08059674  0.95052443  0.14420672    -0.11600
C248        C  0.10328469  0.96615691  0.10497686     0.03100
C249        C  0.15064684  0.97991899  0.10938940    -0.11000
H250        H  0.16032189  0.98754815  0.22542268     0.08700
H251        H  0.04417216  0.93893583  0.14047567     0.06200
H252        H  0.16984758  0.99044358  0.07938609     0.06000
C253        C  0.36211732  0.53660091  0.84553797     0.03100
C254        C  0.38923525  0.53497186  0.80593776    -0.13100
C255        C  0.43928539  0.53679110  0.80887131     0.00600
C256        C  0.46126131  0.54530694  0.85179716    -0.11600
C257        C  0.43486590  0.54608610  0.89183344     0.03100
C258        C  0.38538569  0.54145044  0.88846575    -0.11000
H259        H  0.37132659  0.52860003  0.77333239     0.08700
H260        H  0.49945129  0.54492317  0.85517639     0.06200
H261        H  0.36526157  0.53871076  0.91939130     0.06000
C262        C  0.48269501  0.84388662  0.64962791     0.03100
C263        C  0.47740066  0.86492948  0.60597696    -0.12700
C264        C  0.46274931  0.91207579  0.60192536     0.00600
C265        C  0.44987309  0.93553382  0.64164253    -0.11600
C266        C  0.46907900  0.91958760  0.68442002     0.03100
C267        C  0.48118501  0.87183028  0.68884225    -0.11000
H268        H  0.48635625  0.84534109  0.57574281     0.08700
H269        H  0.43790919  0.97187336  0.63827750     0.06200
H270        H  0.49187566  0.85684898  0.72176850     0.06000
C271        C  0.03102713  0.64826128  0.65482104     0.03100
C272        C  0.03214704  0.62943937  0.61053949    -0.13100
C273        C  0.04859297  0.58345195  0.60472355     0.00600
C274        C  0.06867774  0.55993073  0.64282771    -0.11600
C275        C  0.05188179  0.57157540  0.68637836     0.03100
C276        C  0.03734003  0.61819271  0.69319751    -0.11000
H277        H  0.01901120  0.64989722  0.58123820     0.08700
H278        H  0.08351479  0.52507283  0.63789642     0.06200
H279        H  0.02687584  0.62967497  0.72669108     0.06000
C280        C  0.16134055  0.99062591  0.84739671     0.03100
C281        C  0.13025617  0.98646468  0.80884171    -0.13100
C282        C  0.08218768  0.97526272  0.81473255     0.00600
C283        C  0.06578982  0.96714296  0.85859382    -0.11600
C284        C  0.09508480  0.97477593  0.89707618     0.03100
C285        C  0.14291922  0.98618667  0.89150076    -0.11000
H286        H  0.14304011  0.99309482  0.77480286     0.08700
H287        H  0.02836342  0.96067188  0.86286559     0.06200
H288        H  0.16537005  0.99326894  0.92133374     0.06000
C289        C  0.05490278  0.73214609  0.65816171    -0.01900
C290        C  0.01878066  0.69809660  0.65986283     0.07800
C291        C  0.47106490  0.71189354  0.66079116    -0.02000
C292        C  0.45928833  0.75996142  0.65773133    -0.02000
C293        C  0.49532322  0.79390136  0.65427447     0.07900
C294        C  0.04316553  0.78022245  0.65551928    -0.02200
Br295      Br  0.09226141  0.82734562  0.65256132    -0.00800
Br296      Br  0.12032195  0.71263774  0.65838823    -0.00800
Br297      Br  0.39389909  0.77946549  0.65709341    -0.00800
Br298      Br  0.42218975  0.66478055  0.66527784    -0.00800
C299        C  0.24713980  0.96668215  0.85090117    -0.01900
C300        C  0.21259734  0.00204709  0.84263362     0.07800
C301        C  0.22737205  0.54870994  0.83331055    -0.02000
C302        C  0.27613536  0.56002905  0.83348010    -0.02000
C303        C  0.31055928  0.52484049  0.84296346     0.07900
C304        C  0.29576395  0.97794915  0.85081262    -0.02200
Br305      Br  0.34245876  0.92894876  0.86130869    -0.00800
Br306      Br  0.22768201  0.90252256  0.86245334    -0.00800
Br307      Br  0.29598910  0.62392175  0.82165229    -0.00800
Br308      Br  0.18065411  0.59745754  0.82200795    -0.00800
C309        C  0.28548821  0.55081204  0.16784602    -0.01900
C310        C  0.31902429  0.51569400  0.15851359     0.07800
C311        C  0.30487360  0.96873352  0.15125458    -0.02000
C312        C  0.25661675  0.95746250  0.15048981    -0.02000
C313        C  0.22293016  0.99308930  0.15771204     0.07900
C314        C  0.23731222  0.53942992  0.16777235    -0.02200
Br315      Br  0.19093649  0.58755304  0.17968419    -0.00800
Br316      Br  0.30551097  0.61492516  0.17867286    -0.00800
Br317      Br  0.23647877  0.89340485  0.13944784    -0.00800
Br318      Br  0.35163152  0.92018628  0.14253474    -0.00800
C319        C  0.45212792  0.76901724  0.34690534    -0.01900
C320        C  0.48843762  0.80269887  0.34212926     0.07800
C321        C  0.03543739  0.78678159  0.33728552    -0.02000
C322        C  0.04597480  0.73793130  0.33775187    -0.02000
C323        C  0.00977393  0.70431187  0.34316057     0.07900
C324        C  0.46271812  0.72012481  0.34740560    -0.02200
Br325      Br  0.41281413  0.67454815  0.35431558    -0.00800
Br326      Br  0.38778656  0.79009419  0.35288319    -0.00800
Br327      Br  0.11051516  0.71682014  0.33291203    -0.00800
Br328      Br  0.08598781  0.83203349  0.33240936    -0.00800
O329        O  0.55796479  0.02738682  0.45584245    -0.74500
O330        O  0.51744268  0.43811334  0.54660886    -0.74500
O331        O  0.51737516  0.44203342  0.45378229    -0.74600
O332        O  0.56071269  0.02388189  0.54922640    -0.74600
O333        O  0.99003823  0.05894755  0.54936786    -0.74500
O334        O  0.94688480  0.47766954  0.45131348    -0.74500
O335        O  0.94664907  0.47297852  0.54615080    -0.74500
O336        O  0.98753902  0.06305334  0.45718427    -0.74600
Ni337      Ni  0.54084149  0.48164398  0.50157538     1.25400
Ni338      Ni  0.96509053  0.01917691  0.50122578     1.25400
C339        C  0.52848879  0.05868970  0.44048339     0.87700
C340        C  0.97545582  0.44134736  0.56182198     0.87600
C341        C  0.97646693  0.44820290  0.43496047     0.87700
C342        C  0.53287062  0.05504660  0.56491629     0.87800
C343        C  0.98920235  0.45663959  0.71727525     0.86400
C344        C  0.52838230  0.44248343  0.75304307    -0.53800
C345        C  0.54630403  0.48003339  0.77720150     0.09400
C346        C  0.52243390  0.02779589  0.76482852     0.20300
C347        C  0.95177262  0.48192268  0.74435178    -0.54500
C348        C  0.96835353  0.01856199  0.77052722     0.09500
C349        C  0.51274420  0.49497810  0.68947986    -0.54100
C350        C  0.53025990  0.03234752  0.71293322     0.10000
H351        H  0.54152591  0.40685984  0.75864241     0.14600
H352        H  0.53663845  0.05799294  0.78482292     0.00300
H353        H  0.91602910  0.46828849  0.74595242     0.14900
H354        H  0.51519606  0.99236175  0.65268524     0.14700
C355        C  0.56007077  0.48698876  0.21913312     0.86400
C356        C  0.57409391  0.02423251  0.25549360    -0.53800
C357        C  0.53612938  0.04148503  0.27843621     0.09400
C358        C  0.98834243  0.01856470  0.26455122     0.20300
C359        C  0.53415278  0.44859764  0.24519354    -0.54500
C360        C  0.99727875  0.46420729  0.27038625     0.09500
C361        C  0.52231873  0.01249491  0.19029396    -0.54100
C362        C  0.98456111  0.02889900  0.21256621     0.10000
H363        H  0.60984158  0.03663947  0.26216591     0.14600
H364        H  0.95786653  0.03205028  0.28366346     0.00300
H365        H  0.54763278  0.41270307  0.24699245     0.14900
H366        H  0.52546160  0.01681320  0.15364922     0.14700
C367        C  0.97790192  0.35452158  0.34441455     0.03100
C368        C  0.97182140  0.37578361  0.38713141    -0.13100
C369        C  0.96718024  0.42506274  0.39057491     0.00600
C370        C  0.96911667  0.45336191  0.35077335    -0.11600
C371        C  0.97852021  0.43341867  0.30808529     0.03100
C372        C  0.98042328  0.38352523  0.30504326    -0.11000
H373        H  0.97362934  0.35421355  0.41801634     0.08700
H374        H  0.96964613  0.49132524  0.35439183     0.06200
H375        H  0.98722277  0.36710742  0.27259218     0.06000
O376        O  0.54090867  0.45489819  0.95517491    -0.74500
O377        O  0.95564322  0.49619791  0.04686854    -0.74500
O378        O  0.95524837  0.49567224  0.95398442    -0.74600
O379        O  0.54179594  0.45299476  0.04887259    -0.74600
O380        O  0.57663352  0.02356592  0.04957754    -0.74500
O381        O  0.99073892  0.06593513  0.95230251    -0.74500
O382        O  0.99028258  0.06684784  0.04697209    -0.74500
O383        O  0.57652750  0.02515543  0.95726844    -0.74600
Ni384      Ni  0.49723691  0.47244171  0.00140944     1.25400
Ni385      Ni  0.53460032  0.04801360  0.00176528     1.25400
C386        C  0.57134033  0.98425469  0.93992674     0.87700
C387        C  0.95935196  0.03828032  0.06243441     0.87600
C388        C  0.96038272  0.03649312  0.93577976     0.87700
C389        C  0.57344579  0.48104293  0.06490989     0.87800
C390        C  0.86836448  0.02936431  0.15280480     0.03100
C391        C  0.89889324  0.03474783  0.19117546    -0.13100
C392        C  0.94501441  0.05044779  0.18471173     0.00600
C393        C  0.95608546  0.06894244  0.14112205    -0.11600
C394        C  0.93158420  0.05151689  0.10261703     0.03100
C395        C  0.88601851  0.03381617  0.10845484    -0.11000
H396        H  0.88813991  0.02265639  0.22461673     0.08700
H397        H  0.99078855  0.08410813  0.13637928     0.06200
H398        H  0.86505755  0.02215141  0.07905269     0.06000
C399        C  0.52189483  0.15302081  0.34830656     0.03100
C400        C  0.52554142  0.13255336  0.39242987    -0.13100
C401        C  0.53808227  0.08474790  0.39820109     0.00600
C402        C  0.54763134  0.05757988  0.36000183    -0.11600
C403        C  0.54017037  0.07585974  0.31597687     0.03100
C404        C  0.52786993  0.12392036  0.30985207    -0.11000
H405        H  0.51719329  0.15337960  0.42202883     0.08700
H406        H  0.55485499  0.02011897  0.36434228     0.06200
H407        H  0.52163939  0.13817343  0.27562316     0.06000
C408        C  0.67252721  0.48196526  0.15316726     0.03100
C409        C  0.64498770  0.47875496  0.19222637    -0.13100
C410        C  0.59700762  0.46758759  0.18717840     0.00600
C411        C  0.58059658  0.45052434  0.14420673    -0.11600
C412        C  0.60328472  0.46615687  0.10497685     0.03100
C413        C  0.65064682  0.47991895  0.10938940    -0.11000
H414        H  0.66032182  0.48754841  0.22542251     0.08700
H415        H  0.54417306  0.43893609  0.14047580     0.06200
H416        H  0.66984760  0.49044356  0.07938603     0.06000
C417        C  0.86211728  0.03660106  0.84553795     0.03100
C418        C  0.88923521  0.03497185  0.80593775    -0.13100
C419        C  0.93928538  0.03679104  0.80887130     0.00600
C420        C  0.96126126  0.04530698  0.85179715    -0.11600
C421        C  0.93486590  0.04608621  0.89183343     0.03100
C422        C  0.88538560  0.04145049  0.88846584    -0.11000
H423        H  0.87132655  0.02859993  0.77333242     0.08700
H424        H  0.99945138  0.04492320  0.85517637     0.06200
H425        H  0.86526189  0.03871075  0.91939080     0.06000
C426        C  0.98269495  0.34388661  0.64962791     0.03100
C427        C  0.97740058  0.36492951  0.60597693    -0.12700
C428        C  0.96274925  0.41207580  0.60192537     0.00600
C429        C  0.94987300  0.43553407  0.64164253    -0.11600
C430        C  0.96907907  0.41958760  0.68442001     0.03100
C431        C  0.98118496  0.37183031  0.68884219    -0.11000
H432        H  0.98635622  0.34534123  0.57574298     0.08700
H433        H  0.93790956  0.47187236  0.63827766     0.06200
H434        H  0.99187574  0.35684886  0.72176870     0.06000
C435        C  0.53102705  0.14826127  0.65482094     0.03100
C436        C  0.53214696  0.12943934  0.61053943    -0.13100
C437        C  0.54859293  0.08345193  0.60472358     0.00600
C438        C  0.56867786  0.05993070  0.64282773    -0.11600
C439        C  0.55188190  0.07157543  0.68637837     0.03100
C440        C  0.53734001  0.11819280  0.69319758    -0.11000
H441        H  0.51901123  0.14989702  0.58123826     0.08700
H442        H  0.58351478  0.02507317  0.63789649     0.06200
H443        H  0.52687611  0.12967486  0.72669027     0.06000
C444        C  0.66134053  0.49062587  0.84739670     0.03100
C445        C  0.63025610  0.48646462  0.80884175    -0.13100
C446        C  0.58218767  0.47526268  0.81473254     0.00600
C447        C  0.56578976  0.46714290  0.85859383    -0.11600
C448        C  0.59508486  0.47477591  0.89707619     0.03100
C449        C  0.64291913  0.48618660  0.89150066    -0.11000
H450        H  0.64304020  0.49309485  0.77480247     0.08700
H451        H  0.52836375  0.46067191  0.86286558     0.06200
H452        H  0.66537043  0.49326902  0.92133427     0.06000
C453        C  0.55490267  0.23214609  0.65816169    -0.01900
C454        C  0.51878055  0.19809658  0.65986275     0.07800
C455        C  0.97106486  0.21189351  0.66079117    -0.02000
C456        C  0.95928829  0.25996142  0.65773133    -0.02000
C457        C  0.99532321  0.29390136  0.65427446     0.07900
C458        C  0.54316542  0.28022243  0.65551928    -0.02200
Br459      Br  0.59226131  0.32734558  0.65256132    -0.00800
Br460      Br  0.62032186  0.21263800  0.65838824    -0.00800
Br461      Br  0.89389904  0.27946574  0.65709342    -0.00800
Br462      Br  0.92218967  0.16478053  0.66527784    -0.00800
C463        C  0.74713970  0.46668212  0.85090116    -0.01900
C464        C  0.71259727  0.50204704  0.84263362     0.07800
C465        C  0.72737196  0.04871000  0.83331053    -0.02000
C466        C  0.77613526  0.06002908  0.83348010    -0.02000
C467        C  0.81055924  0.02484055  0.84296349     0.07900
C468        C  0.79576381  0.47794919  0.85081260    -0.02200
Br469      Br  0.84245869  0.42894900  0.86130870    -0.00800
Br470      Br  0.72768192  0.40252252  0.86245334    -0.00800
Br471      Br  0.79598899  0.12392174  0.82165228    -0.00800
Br472      Br  0.68065403  0.09745777  0.82200797    -0.00800
C473        C  0.78548818  0.05081202  0.16784601    -0.01900
C474        C  0.81902429  0.01569405  0.15851357     0.07800
C475        C  0.80487363  0.46873348  0.15125459    -0.02000
C476        C  0.75661677  0.45746250  0.15048980    -0.02000
C477        C  0.72293016  0.49308935  0.15771200     0.07900
C478        C  0.73731222  0.03942985  0.16777236    -0.02200
Br479      Br  0.69093667  0.08755300  0.17968420    -0.00800
Br480      Br  0.80551087  0.11492513  0.17867286    -0.00800
Br481      Br  0.73647897  0.39340481  0.13944785    -0.00800
Br482      Br  0.85163172  0.42018625  0.14253474    -0.00800
C483        C  0.95212798  0.26901721  0.34690534    -0.01900
C484        C  0.98843768  0.30269884  0.34212930     0.07800
C485        C  0.53543739  0.28678156  0.33728577    -0.02000
C486        C  0.54597480  0.23793129  0.33775198    -0.02000
C487        C  0.50977398  0.20431186  0.34316059     0.07900
C488        C  0.96271808  0.22012477  0.34740560    -0.02200
Br489      Br  0.91281404  0.17454811  0.35431558    -0.00800
Br490      Br  0.88778675  0.29009417  0.35288319    -0.00800
Br491      Br  0.61051513  0.21682008  0.33291237    -0.00800
Br492      Br  0.58598776  0.33203345  0.33240971    -0.00800
O493        O  0.55796483  0.52738680  0.45584246    -0.74500
O494        O  0.51744270  0.93811338  0.54660883    -0.74500
O495        O  0.51737515  0.94203344  0.45378230    -0.74600
O496        O  0.56071265  0.52388176  0.54922647    -0.74600
O497        O  0.99003817  0.55894743  0.54936789    -0.74500
O498        O  0.94688479  0.97766937  0.45131356    -0.74500
O499        O  0.94664910  0.97297849  0.54615081    -0.74500
O500        O  0.98753904  0.56305336  0.45718430    -0.74600
Ni501      Ni  0.54084148  0.98164404  0.50157537     1.25400
Ni502      Ni  0.96509051  0.51917693  0.50122577     1.25400
C503        C  0.52848884  0.55868975  0.44048342     0.87700
C504        C  0.97545584  0.94134730  0.56182196     0.87600
C505        C  0.97646697  0.94820283  0.43496049     0.87700
C506        C  0.53287058  0.55504650  0.56491637     0.87800
C507        C  0.98920243  0.95663954  0.71727526     0.86400
C508        C  0.52838226  0.94248343  0.75304309    -0.53800
C509        C  0.54630403  0.98003339  0.77720151     0.09400
C510        C  0.52243392  0.52779588  0.76482850     0.20300
C511        C  0.95177282  0.98192258  0.74435185    -0.54500
C512        C  0.96835346  0.51856211  0.77052717     0.09500
C513        C  0.51274425  0.99497808  0.68947983    -0.54100
C514        C  0.53025983  0.53234752  0.71293321     0.10000
H515        H  0.54152585  0.90685983  0.75864244     0.14600
H516        H  0.53663851  0.55799308  0.78482299     0.00300
H517        H  0.91602866  0.96828813  0.74595251     0.14900
H518        H  0.51519604  0.49236175  0.65268514     0.14700
C519        C  0.56007083  0.98698879  0.21913313     0.86400
C520        C  0.57409388  0.52423248  0.25549356    -0.53800
C521        C  0.53612942  0.54148502  0.27843621     0.09400
C522        C  0.98834244  0.51856469  0.26455123     0.20300
C523        C  0.53415292  0.94859764  0.24519358    -0.54500
C524        C  0.99727870  0.96420732  0.27038625     0.09500
C525        C  0.52231867  0.51249489  0.19029398    -0.54100
C526        C  0.98456116  0.52889895  0.21256621     0.10000
H527        H  0.60984163  0.53663946  0.26216583     0.14600
H528        H  0.95786669  0.53205018  0.28366332     0.00300
H529        H  0.54763295  0.91270320  0.24699257     0.14900
H530        H  0.52546153  0.51681313  0.15364919     0.14700
C531        C  0.97790191  0.85452159  0.34441450     0.03100
C532        C  0.97182151  0.87578352  0.38713151    -0.13100
C533        C  0.96718032  0.92506268  0.39057492     0.00600
C534        C  0.96911679  0.95336208  0.35077342    -0.11600
C535        C  0.97852018  0.93341867  0.30808529     0.03100
C536        C  0.98042320  0.88352528  0.30504327    -0.11000
H537        H  0.97362950  0.85421382  0.41801580     0.08700
H538        H  0.96964631  0.99132433  0.35439184     0.06200
H539        H  0.98722271  0.86710740  0.27259204     0.06000
O540        O  0.54090858  0.95489820  0.95517487    -0.74500
O541        O  0.95564330  0.99619790  0.04686856    -0.74500
O542        O  0.95524833  0.99567218  0.95398438    -0.74600
O543        O  0.54179603  0.95299474  0.04887252    -0.74600
O544        O  0.57663355  0.52356589  0.04957751    -0.74500
O545        O  0.99073885  0.56593523  0.95230249    -0.74500
O546        O  0.99028250  0.56684785  0.04697208    -0.74500
O547        O  0.57652758  0.52515543  0.95726846    -0.74600
Ni548      Ni  0.49723686  0.97244172  0.00140943     1.25400
Ni549      Ni  0.53460033  0.54801363  0.00176528     1.25400
C550        C  0.57134040  0.48425468  0.93992675     0.87700
C551        C  0.95935190  0.53828034  0.06243441     0.87600
C552        C  0.96038268  0.53649317  0.93577977     0.87700
C553        C  0.57344583  0.98104295  0.06490987     0.87800
C554        C  0.86836447  0.52936420  0.15280479     0.03100
C555        C  0.89889323  0.53474755  0.19117549    -0.13100
C556        C  0.94501440  0.55044762  0.18471172     0.00600
C557        C  0.95608550  0.56894244  0.14112208    -0.11600
C558        C  0.93158416  0.55151694  0.10261704     0.03100
C559        C  0.88601852  0.53381617  0.10845484    -0.11000
H560        H  0.88813999  0.52265609  0.22461642     0.08700
H561        H  0.99078817  0.58410802  0.13637940     0.06200
H562        H  0.86505758  0.52215141  0.07905265     0.06000
C563        C  0.52189483  0.65302080  0.34830653     0.03100
C564        C  0.52554140  0.63255338  0.39242986    -0.13100
C565        C  0.53808237  0.58474792  0.39820111     0.00600
C566        C  0.54763136  0.55758010  0.36000184    -0.11600
C567        C  0.54017050  0.57585971  0.31597688     0.03100
C568        C  0.52786993  0.62392031  0.30985212    -0.11000
H569        H  0.51719323  0.65337960  0.42202879     0.08700
H570        H  0.55485518  0.52011791  0.36434245     0.06200
H571        H  0.52163933  0.63817342  0.27562289     0.06000
C572        C  0.67252726  0.98196519  0.15316727     0.03100
C573        C  0.64498774  0.97875477  0.19222638    -0.13100
C574        C  0.59700764  0.96758757  0.18717839     0.00600
C575        C  0.58059655  0.95052440  0.14420671    -0.11600
C576        C  0.60328473  0.96615694  0.10497685     0.03100
C577        C  0.65064678  0.97991898  0.10938949    -0.11000
H578        H  0.66032191  0.98754811  0.22542263     0.08700
H579        H  0.54417301  0.93893619  0.14047575     0.06200
H580        H  0.66984785  0.99044376  0.07938564     0.06000
C581        C  0.86211721  0.53660094  0.84553795     0.03100
C582        C  0.88923512  0.53497185  0.80593775    -0.13100
C583        C  0.93928528  0.53679109  0.80887128     0.00600
C584        C  0.96126118  0.54530694  0.85179714    -0.11600
C585        C  0.93486582  0.54608613  0.89183342     0.03100
C586        C  0.88538552  0.54145044  0.88846584    -0.11000
H587        H  0.87132644  0.52860002  0.77333239     0.08700
H588        H  0.99945131  0.54492317  0.85517636     0.06200
H589        H  0.86526178  0.53871081  0.91939081     0.06000
C590        C  0.98269493  0.84388660  0.64962790     0.03100
C591        C  0.97740049  0.86492948  0.60597699    -0.12700
C592        C  0.96274924  0.91207577  0.60192534     0.00600
C593        C  0.94987316  0.93553384  0.64164254    -0.11600
C594        C  0.96907914  0.91958761  0.68442001     0.03100
C595        C  0.98118512  0.87183028  0.68884224    -0.11000
H596        H  0.98635616  0.84534093  0.57574260     0.08700
H597        H  0.93790930  0.97187341  0.63827752     0.06200
H598        H  0.99187587  0.85684900  0.72176845     0.06000
C599        C  0.53102708  0.64826126  0.65482106     0.03100
C600        C  0.53214692  0.62943936  0.61053946    -0.13100
C601        C  0.54859299  0.58345194  0.60472359     0.00600
C602        C  0.56867786  0.55993069  0.64282773    -0.11600
C603        C  0.55188187  0.57157540  0.68637839     0.03100
C604        C  0.53734015  0.61819272  0.69319753    -0.11000
H605        H  0.51901119  0.64989697  0.58123848     0.08700
H606        H  0.58351475  0.52507311  0.63789649     0.06200
H607        H  0.52687606  0.62967500  0.72669111     0.06000
C608        C  0.66134059  0.99062588  0.84739671     0.03100
C609        C  0.63025618  0.98646465  0.80884170    -0.13100
C610        C  0.58218772  0.97526273  0.81473253     0.00600
C611        C  0.56578964  0.96714295  0.85859384    -0.11600
C612        C  0.59508487  0.97477596  0.89707618     0.03100
C613        C  0.64291924  0.98618665  0.89150076    -0.11000
H614        H  0.64304017  0.99309481  0.77480286     0.08700
H615        H  0.52836460  0.96067212  0.86286546     0.06200
H616        H  0.66537014  0.99326893  0.92133378     0.06000
C617        C  0.55490273  0.73214608  0.65816171    -0.01900
C618        C  0.51878064  0.69809659  0.65986283     0.07800
C619        C  0.97106487  0.71189352  0.66079117    -0.02000
C620        C  0.95928828  0.75996140  0.65773133    -0.02000
C621        C  0.99532319  0.79390135  0.65427447     0.07900
C622        C  0.54316550  0.78022243  0.65551928    -0.02200
Br623      Br  0.59226127  0.82734563  0.65256132    -0.00800
Br624      Br  0.62032182  0.71263774  0.65838823    -0.00800
Br625      Br  0.89389896  0.77946548  0.65709341    -0.00800
Br626      Br  0.92218960  0.66478057  0.66527783    -0.00800
C627        C  0.74713976  0.96668216  0.85090116    -0.01900
C628        C  0.71259732  0.00204709  0.84263362     0.07800
C629        C  0.72737193  0.54870994  0.83331055    -0.02000
C630        C  0.77613523  0.56002905  0.83348010    -0.02000
C631        C  0.81055918  0.52484050  0.84296347     0.07900
C632        C  0.79576389  0.97794920  0.85081261    -0.02200
Br633      Br  0.84245860  0.92894877  0.86130869    -0.00800
Br634      Br  0.72768185  0.90252257  0.86245334    -0.00800
Br635      Br  0.79598892  0.62392176  0.82165229    -0.00800
Br636      Br  0.68065393  0.59745753  0.82200796    -0.00800
C637        C  0.78548817  0.55081204  0.16784600    -0.01900
C638        C  0.81902425  0.51569401  0.15851355     0.07800
C639        C  0.80487369  0.96873351  0.15125458    -0.02000
C640        C  0.75661683  0.95746249  0.15048980    -0.02000
C641        C  0.72293022  0.99308929  0.15771203     0.07900
C642        C  0.73731218  0.53942991  0.16777234    -0.02200
Br643      Br  0.69093660  0.58755307  0.17968420    -0.00800
Br644      Br  0.80551110  0.61492514  0.17867286    -0.00800
Br645      Br  0.73647891  0.89340485  0.13944784    -0.00800
Br646      Br  0.85163167  0.92018629  0.14253474    -0.00800
C647        C  0.95212793  0.76901725  0.34690536    -0.01900
C648        C  0.98843764  0.80269887  0.34212922     0.07800
C649        C  0.53543746  0.78678163  0.33728576    -0.02000
C650        C  0.54597490  0.73793134  0.33775197    -0.02000
C651        C  0.50977403  0.70431189  0.34316057     0.07900
C652        C  0.96271803  0.72012481  0.34740560    -0.02200
Br653      Br  0.91281396  0.67454817  0.35431558    -0.00800
Br654      Br  0.88778668  0.79009422  0.35288320    -0.00800
Br655      Br  0.61051533  0.71682014  0.33291237    -0.00800
Br656      Br  0.58598795  0.83203349  0.33240971    -0.00800
loop_ 
_geom_bond_atom_site_label_1 
_geom_bond_atom_site_label_2 
_geom_bond_distance 
_geom_bond_site_symmetry_2 
_ccdc_geom_bond_type 
O1           C11   1.284       .  A
O1         Ni173   1.924   1_545  S
O2          C340   1.284   1_455  A
O2           Ni9   1.926       .  S
O3          C341   1.277   1_455  A
O3           Ni9   1.905       .  S
O4           C14   1.279       .  A
O4         Ni173   1.918   1_545  S
O5          C342   1.285       .  A
O5          Ni10   1.930       .  S
O6           C13   1.286       .  A
O6         Ni174   1.941       .  S
O7           C12   1.281       .  A
O7         Ni174   1.927       .  S
O8          C339   1.276       .  A
O8          Ni10   1.903       .  S
Ni9         O165   1.924       .  S
Ni9         O168   1.918       .  S
Ni9        Ni502   2.390   1_455  S
Ni10        O170   1.941   1_545  S
Ni10        O171   1.927   1_545  S
Ni10       Ni501   2.390   1_545  S
C11         O336   1.276   1_455  A
C11          C73   1.465       .  S
C12         O330   1.284       .  A
C12         C100   1.481       .  S
C13         O331   1.277       .  A
C13          C41   1.476       .  S
C14         O333   1.285   1_455  A
C14         C109   1.479       .  S
C15          C19   1.523       .  S
C15         C344   1.549       .  S
C15         C349   1.516       .  S
C15         C102   1.529       .  S
C16         C343   1.549   1_455  S
C16          H23   1.084       .  S
C16          C17   1.372       .  D
C17         C182   1.545       .  S
C17         C118   1.477       .  S
C18          C22   1.543       .  S
C18         C181   1.545   1_545  S
C18         C348   1.566   1_455  S
C18          H24   1.110       .  S
C19          H25   1.085       .  S
C19         C184   1.371       .  D
C20         C346   1.566       .  S
C20         C183   1.371   1_545  D
C20          C91   1.504       .  S
C21         C343   1.516   1_455  S
C21         H190   1.082       .  S
C21         C186   1.354       .  D
C22         C185   1.354   1_545  D
C22         C111   1.491       .  S
H26         C185   1.082       .  S
C27          C31   1.523       .  S
C27         C192   1.549       .  S
C27         C197   1.517       .  S
C27          C82   1.527       .  S
C28         C191   1.549   1_545  S
C28          H35   1.084       .  S
C28          C29   1.374       .  D
C29         C358   1.546   1_455  S
C29          C75   1.476       .  S
C30          C34   1.544       .  S
C30         C357   1.546       .  S
C30         C196   1.567   1_545  S
C30          H36   1.110       .  S
C31          H37   1.085       .  S
C31         C360   1.369   1_455  D
C32         C194   1.567       .  S
C32         C359   1.369       .  D
C32          C43   1.507       .  S
C33         C191   1.517   1_545  S
C33          H38   1.082       .  S
C33         C362   1.351   1_455  D
C34         C361   1.351       .  D
C34          C64   1.489       .  S
C39         C156   1.500       .  S
C39          C40   1.406       .  A
C39          C44   1.410       .  A
C40          C41   1.407       .  A
C40          H45   1.084       .  S
C41          C42   1.408       .  A
C42          C43   1.407       .  A
C42          H46   1.082       .  S
C43          C44   1.418       .  A
C44          H47   1.082       .  S
O48         C222   1.284       .  A
O48         Ni56   1.926   1_456  S
O49         C223   1.284       .  A
O49        Ni384   1.926       .  S
O50         C224   1.278       .  A
O50        Ni384   1.908   1_556  S
O51          C61   1.280       .  A
O51         Ni56   1.921   1_455  S
O52         C225   1.285   1_545  A
O52         Ni57   1.929       .  S
O53          C60   1.286       .  A
O53        Ni385   1.939   1_556  S
O54          C59   1.282       .  A
O54        Ni385   1.926       .  S
O55          C58   1.276   1_545  A
O55         Ni57   1.903   1_556  S
Ni56        O377   1.926       .  S
Ni56        O378   1.908   1_554  S
Ni56       Ni221   2.389   1_655  S
Ni57        O381   1.939   1_454  S
Ni57        O382   1.926   1_455  S
Ni57       Ni220   2.389   1_445  S
C58         O212   1.284       .  A
C58         C284   1.465       .  S
C59         O213   1.284   1_545  A
C59          C66   1.483       .  S
C60         O214   1.278   1_545  A
C60          C93   1.476       .  S
C61         O216   1.285       .  A
C61          C84   1.480       .  S
C62         C146   1.463       .  S
C62          C63   1.404       .  A
C62          C67   1.407       .  A
C63          C64   1.397       .  A
C63          H68   1.084       .  S
C64          C65   1.416       .  A
C65          C66   1.399       .  A
C65          H69   1.084       .  S
C66          C67   1.398       .  A
C67          H70   1.084       .  S
C71         C159   1.497       .  S
C71          C72   1.408       .  A
C71          C76   1.414       .  A
C72          C73   1.406       .  A
C72          H77   1.083       .  S
C73          C74   1.395       .  A
C74          C75   1.391       .  A
C74          H78   1.086       .  S
C75          C76   1.413       .  A
C76          H79   1.084       .  S
C80         C149   1.463       .  S
C80          C81   1.403       .  A
C80          C85   1.406       .  A
C81          C82   1.398       .  A
C81          H86   1.082       .  S
C82          C83   1.416       .  A
C83          C84   1.398       .  A
C83          H87   1.085       .  S
C84          C85   1.399       .  A
C85          H88   1.084       .  S
C89         C139   1.496       .  S
C89          C90   1.408       .  A
C89          C94   1.407       .  A
C90          C91   1.417       .  A
C90          H95   1.082       .  S
C91          C92   1.406       .  A
C92          C93   1.406       .  A
C92          H96   1.082       .  S
C93          C94   1.407       .  A
C94          H97   1.084       .  S
C98         C129   1.463       .  S
C98          C99   1.405       .  A
C98         C103   1.401       .  A
C99         C100   1.400       .  A
C99         H104   1.084       .  S
C100        C101   1.400       .  A
C101        C102   1.417       .  A
C101        H105   1.085       .  S
C102        C103   1.398       .  A
C103        H106   1.082       .  S
C107        C126   1.463       .  S
C107        C108   1.406       .  A
C107        C112   1.407       .  A
C108        C109   1.396       .  A
C108        H113   1.084       .  S
C109        C110   1.397       .  A
C110        C111   1.413       .  A
C110        H114   1.085       .  S
C111        C112   1.400       .  A
C112        H115   1.084       .  S
C116        C136   1.496       .  S
C116        C117   1.414       .  A
C116        C121   1.408       .  A
C117        C118   1.412       .  A
C117        H122   1.083       .  S
C118        C119   1.392       .  A
C119        C120   1.396       .  A
C119        H123   1.085       .  S
C120        C222   1.465       .  S
C120        C121   1.405       .  A
C121        H124   1.084       .  S
C125        C126   1.408       .  A
C125        C130   1.402       .  A
C125       Br132   1.930       .  S
C126        C455   1.405   1_455  A
C127        C128   1.402       .  A
C127        C454   1.405       .  A
C127       Br134   1.930       .  S
C128        C129   1.408       .  A
C128       Br133   1.929       .  S
C129        C458   1.406       .  A
C130        C457   1.406   1_455  A
C130       Br131   1.931       .  S
C135        C136   1.412       .  A
C135        C140   1.413       .  A
C135       Br142   1.929       .  S
C136        C301   1.413       .  A
C137        C138   1.417       .  A
C137        C300   1.413       .  A
C137       Br144   1.928       .  S
C138        C139   1.411       .  A
C138       Br143   1.927       .  S
C139        C304   1.412   1_545  A
C140        C303   1.412       .  A
C140       Br141   1.930       .  S
C145        C146   1.407       .  A
C145        C150   1.401       .  A
C145       Br152   1.930       .  S
C146        C311   1.406   1_545  A
C147        C148   1.402       .  A
C147        C310   1.406       .  A
C147       Br154   1.930       .  S
C148        C149   1.408       .  A
C148       Br153   1.931       .  S
C149        C314   1.407       .  A
C150        C313   1.407   1_545  A
C150       Br151   1.931       .  S
C155        C156   1.412       .  A
C155        C160   1.416       .  A
C155       Br162   1.928       .  S
C156        C485   1.414       .  A
C157        C158   1.415       .  A
C157        C484   1.414   1_455  A
C157       Br164   1.930       .  S
C158        C159   1.411       .  A
C158       Br163   1.929       .  S
C159        C488   1.413   1_455  A
C160        C487   1.413       .  A
C160       Br161   1.928       .  S
O165        C175   1.284       .  A
O166        C504   1.284   1_455  A
O166       Ni173   1.926       .  S
O167        C505   1.277   1_455  A
O167       Ni173   1.905       .  S
O168        C178   1.279       .  A
O169        C506   1.285       .  A
O169       Ni174   1.930       .  S
O170        C177   1.286       .  A
O171        C176   1.281       .  A
O172        C503   1.276       .  A
O172       Ni174   1.903       .  S
Ni173      Ni338   2.390   1_465  S
Ni174      Ni337   2.390       .  S
C175        O500   1.276   1_455  A
C175        C237   1.465       .  S
C176        O494   1.284       .  A
C176        C264   1.481       .  S
C177        O495   1.277       .  A
C177        C205   1.476       .  S
C178        O497   1.285   1_455  A
C178        C273   1.479       .  S
C179        C508   1.549       .  S
C179        C513   1.516       .  S
C179        C183   1.523       .  S
C179        C266   1.529       .  S
C180        C507   1.549   1_455  S
C180        H187   1.084       .  S
C180        C181   1.372       .  D
C181        C282   1.477       .  S
C182        C186   1.543       .  S
C182        C512   1.566   1_455  S
C182        H188   1.110       .  S
C183        H189   1.085       .  S
C184        C510   1.566       .  S
C184        C255   1.504       .  S
C185        C507   1.516   1_455  S
C186        C275   1.491       .  S
C191        C195   1.523       .  S
C191        C246   1.527       .  S
C192        H199   1.084       .  S
C192        C193   1.374       .  D
C193        C522   1.546   1_455  S
C193        C239   1.476       .  S
C194        C521   1.546       .  S
C194        C198   1.544       .  S
C194        H200   1.110       .  S
C195        H201   1.085       .  S
C195        C524   1.369   1_455  D
C196        C523   1.369       .  D
C196        C207   1.507       .  S
C197        H202   1.082       .  S
C197        C526   1.351   1_455  D
C198        C525   1.351       .  D
C198        C228   1.489       .  S
C203        C320   1.500       .  S
C203        C204   1.406       .  A
C203        C208   1.410       .  A
C204        C205   1.407       .  A
C204        H209   1.084       .  S
C205        C206   1.408       .  A
C206        C207   1.407       .  A
C206        H210   1.082       .  S
C207        C208   1.418       .  A
C208        H211   1.082       .  S
O212       Ni220   1.926   1_456  S
O213       Ni548   1.926       .  S
O214       Ni548   1.908   1_556  S
O215        C225   1.280       .  A
O215       Ni220   1.921   1_455  S
O216       Ni221   1.929       .  S
O217        C224   1.286       .  A
O217       Ni549   1.939   1_556  S
O218        C223   1.282       .  A
O218       Ni549   1.926       .  S
O219        C222   1.276       .  A
O219       Ni221   1.903   1_556  S
Ni220       O541   1.926       .  S
Ni220       O542   1.908   1_554  S
Ni221       O545   1.939   1_454  S
Ni221       O546   1.926   1_455  S
C223        C230   1.483       .  S
C224        C257   1.476       .  S
C225        C248   1.480       .  S
C226        C310   1.463       .  S
C226        C227   1.404       .  A
C226        C231   1.407       .  A
C227        C228   1.397       .  A
C227        H232   1.084       .  S
C228        C229   1.416       .  A
C229        C230   1.399       .  A
C229        H233   1.084       .  S
C230        C231   1.398       .  A
C231        H234   1.084       .  S
C235        C323   1.497       .  S
C235        C236   1.408       .  A
C235        C240   1.414       .  A
C236        C237   1.406       .  A
C236        H241   1.083       .  S
C237        C238   1.395       .  A
C238        C239   1.391       .  A
C238        H242   1.086       .  S
C239        C240   1.413       .  A
C240        H243   1.084       .  S
C244        C313   1.463       .  S
C244        C245   1.403       .  A
C244        C249   1.406       .  A
C245        C246   1.398       .  A
C245        H250   1.082       .  S
C246        C247   1.416       .  A
C247        C248   1.398       .  A
C247        H251   1.085       .  S
C248        C249   1.399       .  A
C249        H252   1.084       .  S
C253        C303   1.496       .  S
C253        C254   1.408       .  A
C253        C258   1.407       .  A
C254        C255   1.417       .  A
C254        H259   1.082       .  S
C255        C256   1.406       .  A
C256        C257   1.406       .  A
C256        H260   1.082       .  S
C257        C258   1.407       .  A
C258        H261   1.084       .  S
C262        C293   1.463       .  S
C262        C263   1.405       .  A
C262        C267   1.401       .  A
C263        C264   1.400       .  A
C263        H268   1.084       .  S
C264        C265   1.400       .  A
C265        C266   1.417       .  A
C265        H269   1.085       .  S
C266        C267   1.398       .  A
C267        H270   1.082       .  S
C271        C290   1.463       .  S
C271        C272   1.406       .  A
C271        C276   1.407       .  A
C272        C273   1.396       .  A
C272        H277   1.084       .  S
C273        C274   1.397       .  A
C274        C275   1.413       .  A
C274        H278   1.085       .  S
C275        C276   1.400       .  A
C276        H279   1.084       .  S
C280        C300   1.496   1_565  S
C280        C281   1.414       .  A
C280        C285   1.408       .  A
C281        C282   1.412       .  A
C281        H286   1.083       .  S
C282        C283   1.392       .  A
C283        C284   1.396       .  A
C283        H287   1.085       .  S
C284        C285   1.405       .  A
C285        H288   1.084       .  S
C289        C290   1.408       .  A
C289        C294   1.402       .  A
C289       Br296   1.930       .  S
C290        C619   1.405   1_455  A
C291        C618   1.405       .  A
C291        C292   1.402       .  A
C291       Br298   1.930       .  S
C292        C293   1.408       .  A
C292       Br297   1.929       .  S
C293        C622   1.406       .  A
C294        C621   1.406   1_455  A
C294       Br295   1.931       .  S
C299        C300   1.412   1_565  A
C299        C304   1.413       .  A
C299       Br306   1.929       .  S
C301        C302   1.417       .  A
C301       Br308   1.928       .  S
C302        C303   1.411       .  A
C302       Br307   1.927       .  S
C304       Br305   1.930       .  S
C309        C310   1.407       .  A
C309        C314   1.401       .  A
C309       Br316   1.930       .  S
C311        C312   1.402       .  A
C311       Br318   1.930       .  S
C312        C313   1.408       .  A
C312       Br317   1.931       .  S
C314       Br315   1.931       .  S
C319        C320   1.412       .  A
C319        C324   1.416       .  A
C319       Br326   1.928       .  S
C320        C649   1.414       .  A
C321        C648   1.414   1_455  A
C321        C322   1.415       .  A
C321       Br328   1.930       .  S
C322        C323   1.411       .  A
C322       Br327   1.929       .  S
C323        C652   1.413   1_455  A
C324        C651   1.413       .  A
C324       Br325   1.928       .  S
O329        C339   1.284       .  A
O329       Ni501   1.924   1_545  S
O330       Ni337   1.926       .  S
O331       Ni337   1.905       .  S
O332        C342   1.279       .  A
O332       Ni501   1.918   1_545  S
O333       Ni338   1.930       .  S
O334        C341   1.286       .  A
O334       Ni502   1.941       .  S
O335        C340   1.281       .  A
O335       Ni502   1.927       .  S
O336       Ni338   1.903       .  S
Ni337       O493   1.924       .  S
Ni337       O496   1.918       .  S
Ni338       O498   1.941   1_545  S
Ni338       O499   1.927   1_545  S
C339        C401   1.465       .  S
C340        C428   1.481       .  S
C341        C369   1.476       .  S
C342        C437   1.479       .  S
C343        C347   1.523       .  S
C343        C430   1.529       .  S
C344        H351   1.084       .  S
C344        C345   1.372       .  D
C345        C510   1.545       .  S
C345        C446   1.477       .  S
C346        C509   1.545   1_545  S
C346        C350   1.543       .  S
C346        H352   1.110       .  S
C347        H353   1.085       .  S
C347        C512   1.371       .  D
C348        C511   1.371   1_545  D
C348        C419   1.504       .  S
C349        H518   1.082       .  S
C349        C514   1.354       .  D
C350        C513   1.354   1_545  D
C350        C439   1.491       .  S
H354        C513   1.082       .  S
C355        C520   1.549       .  S
C355        C525   1.517       .  S
C355        C359   1.523       .  S
C355        C410   1.527       .  S
C356        C519   1.549   1_545  S
C356        H363   1.084       .  S
C356        C357   1.374       .  D
C357        C403   1.476       .  S
C358        C362   1.544       .  S
C358        C524   1.567   1_545  S
C358        H364   1.110       .  S
C359        H365   1.085       .  S
C360        C522   1.567       .  S
C360        C371   1.507       .  S
C361        C519   1.517   1_545  S
C361        H366   1.082       .  S
C362        C392   1.489       .  S
C367        C484   1.500       .  S
C367        C368   1.406       .  A
C367        C372   1.410       .  A
C368        C369   1.407       .  A
C368        H373   1.084       .  S
C369        C370   1.408       .  A
C370        C371   1.407       .  A
C370        H374   1.082       .  S
C371        C372   1.418       .  A
C372        H375   1.082       .  S
O376        C550   1.284       .  A
O376       Ni384   1.926   1_556  S
O377        C551   1.284       .  A
O378        C552   1.278       .  A
O379        C389   1.280       .  A
O379       Ni384   1.921       .  S
O380        C553   1.285   1_545  A
O380       Ni385   1.929       .  S
O381        C388   1.286       .  A
O382        C387   1.282       .  A
O383        C386   1.276   1_545  A
O383       Ni385   1.903   1_556  S
Ni384      Ni549   2.389       .  S
Ni385      Ni548   2.389   1_545  S
C386        O540   1.284       .  A
C386        C612   1.465       .  S
C387        O541   1.284   1_545  A
C387        C394   1.483       .  S
C388        O542   1.278   1_545  A
C388        C421   1.476       .  S
C389        O544   1.285       .  A
C389        C412   1.480       .  S
C390        C474   1.463       .  S
C390        C391   1.404       .  A
C390        C395   1.407       .  A
C391        C392   1.397       .  A
C391        H396   1.084       .  S
C392        C393   1.416       .  A
C393        C394   1.399       .  A
C393        H397   1.084       .  S
C394        C395   1.398       .  A
C395        H398   1.084       .  S
C399        C487   1.497       .  S
C399        C400   1.408       .  A
C399        C404   1.414       .  A
C400        C401   1.406       .  A
C400        H405   1.083       .  S
C401        C402   1.395       .  A
C402        C403   1.391       .  A
C402        H406   1.086       .  S
C403        C404   1.413       .  A
C404        H407   1.084       .  S
C408        C477   1.463       .  S
C408        C409   1.403       .  A
C408        C413   1.406       .  A
C409        C410   1.398       .  A
C409        H414   1.082       .  S
C410        C411   1.416       .  A
C411        C412   1.398       .  A
C411        H415   1.085       .  S
C412        C413   1.399       .  A
C413        H416   1.084       .  S
C417        C467   1.496       .  S
C417        C418   1.408       .  A
C417        C422   1.407       .  A
C418        C419   1.417       .  A
C418        H423   1.082       .  S
C419        C420   1.406       .  A
C420        C421   1.406       .  A
C420        H424   1.082       .  S
C421        C422   1.407       .  A
C422        H425   1.084       .  S
C426        C457   1.463       .  S
C426        C427   1.405       .  A
C426        C431   1.401       .  A
C427        C428   1.400       .  A
C427        H432   1.084       .  S
C428        C429   1.400       .  A
C429        C430   1.417       .  A
C429        H433   1.085       .  S
C430        C431   1.398       .  A
C431        H434   1.082       .  S
C435        C454   1.463       .  S
C435        C436   1.406       .  A
C435        C440   1.407       .  A
C436        C437   1.396       .  A
C436        H441   1.084       .  S
C437        C438   1.397       .  A
C438        C439   1.413       .  A
C438        H442   1.085       .  S
C439        C440   1.400       .  A
C440        H443   1.084       .  S
C444        C464   1.496       .  S
C444        C445   1.414       .  A
C444        C449   1.408       .  A
C445        C446   1.412       .  A
C445        H450   1.083       .  S
C446        C447   1.392       .  A
C447        C448   1.396       .  A
C447        H451   1.085       .  S
C448        C550   1.465       .  S
C448        C449   1.405       .  A
C449        H452   1.084       .  S
C453        C454   1.408       .  A
C453        C458   1.402       .  A
C453       Br460   1.930       .  S
C455        C456   1.402       .  A
C455       Br462   1.930       .  S
C456        C457   1.408       .  A
C456       Br461   1.929       .  S
C458       Br459   1.931       .  S
C463        C464   1.412       .  A
C463        C468   1.413       .  A
C463       Br470   1.929       .  S
C464        C629   1.413       .  A
C465        C628   1.413       .  A
C465        C466   1.417       .  A
C465       Br472   1.928       .  S
C466        C467   1.411       .  A
C466       Br471   1.927       .  S
C467        C632   1.412   1_545  A
C468        C631   1.412       .  A
C468       Br469   1.930       .  S
C473        C474   1.407       .  A
C473        C478   1.401       .  A
C473       Br480   1.930       .  S
C474        C639   1.406   1_545  A
C475        C638   1.406       .  A
C475        C476   1.402       .  A
C475       Br482   1.930       .  S
C476        C477   1.408       .  A
C476       Br481   1.931       .  S
C477        C642   1.407       .  A
C478        C641   1.407   1_545  A
C478       Br479   1.931       .  S
C483        C484   1.412       .  A
C483        C488   1.416       .  A
C483       Br490   1.928       .  S
C485        C486   1.415       .  A
C485       Br492   1.930       .  S
C486        C487   1.411       .  A
C486       Br491   1.929       .  S
C488       Br489   1.928       .  S
O493        C503   1.284       .  A
O494       Ni501   1.926       .  S
O495       Ni501   1.905       .  S
O496        C506   1.279       .  A
O497       Ni502   1.930       .  S
O498        C505   1.286       .  A
O499        C504   1.281       .  A
O500       Ni502   1.903       .  S
C503        C565   1.465       .  S
C504        C592   1.481       .  S
C505        C533   1.476       .  S
C506        C601   1.479       .  S
C507        C511   1.523       .  S
C507        C594   1.529       .  S
C508        H515   1.084       .  S
C508        C509   1.372       .  D
C509        C610   1.477       .  S
C510        C514   1.543       .  S
C510        H516   1.110       .  S
C511        H517   1.085       .  S
C512        C583   1.504       .  S
C514        C603   1.491       .  S
C519        C523   1.523       .  S
C519        C574   1.527       .  S
C520        H527   1.084       .  S
C520        C521   1.374       .  D
C521        C567   1.476       .  S
C522        C526   1.544       .  S
C522        H528   1.110       .  S
C523        H529   1.085       .  S
C524        C535   1.507       .  S
C525        H530   1.082       .  S
C526        C556   1.489       .  S
C531        C648   1.500       .  S
C531        C532   1.406       .  A
C531        C536   1.410       .  A
C532        C533   1.407       .  A
C532        H537   1.084       .  S
C533        C534   1.408       .  A
C534        C535   1.407       .  A
C534        H538   1.082       .  S
C535        C536   1.418       .  A
C536        H539   1.082       .  S
O540       Ni548   1.926   1_556  S
O543        C553   1.280       .  A
O543       Ni548   1.921       .  S
O544       Ni549   1.929       .  S
O545        C552   1.286       .  A
O546        C551   1.282       .  A
O547        C550   1.276       .  A
O547       Ni549   1.903   1_556  S
C551        C558   1.483       .  S
C552        C585   1.476       .  S
C553        C576   1.480       .  S
C554        C638   1.463       .  S
C554        C555   1.404       .  A
C554        C559   1.407       .  A
C555        C556   1.397       .  A
C555        H560   1.084       .  S
C556        C557   1.416       .  A
C557        C558   1.399       .  A
C557        H561   1.084       .  S
C558        C559   1.398       .  A
C559        H562   1.084       .  S
C563        C651   1.497       .  S
C563        C564   1.408       .  A
C563        C568   1.414       .  A
C564        C565   1.406       .  A
C564        H569   1.083       .  S
C565        C566   1.395       .  A
C566        C567   1.391       .  A
C566        H570   1.086       .  S
C567        C568   1.413       .  A
C568        H571   1.084       .  S
C572        C641   1.463       .  S
C572        C573   1.403       .  A
C572        C577   1.406       .  A
C573        C574   1.398       .  A
C573        H578   1.082       .  S
C574        C575   1.416       .  A
C575        C576   1.398       .  A
C575        H579   1.085       .  S
C576        C577   1.399       .  A
C577        H580   1.084       .  S
C581        C631   1.496       .  S
C581        C582   1.408       .  A
C581        C586   1.407       .  A
C582        C583   1.417       .  A
C582        H587   1.082       .  S
C583        C584   1.406       .  A
C584        C585   1.406       .  A
C584        H588   1.082       .  S
C585        C586   1.407       .  A
C586        H589   1.084       .  S
C590        C621   1.463       .  S
C590        C591   1.405       .  A
C590        C595   1.401       .  A
C591        C592   1.400       .  A
C591        H596   1.084       .  S
C592        C593   1.400       .  A
C593        C594   1.417       .  A
C593        H597   1.085       .  S
C594        C595   1.398       .  A
C595        H598   1.082       .  S
C599        C618   1.463       .  S
C599        C600   1.406       .  A
C599        C604   1.407       .  A
C600        C601   1.396       .  A
C600        H605   1.084       .  S
C601        C602   1.397       .  A
C602        C603   1.413       .  A
C602        H606   1.085       .  S
C603        C604   1.400       .  A
C604        H607   1.084       .  S
C608        C628   1.496   1_565  S
C608        C609   1.414       .  A
C608        C613   1.408       .  A
C609        C610   1.412       .  A
C609        H614   1.083       .  S
C610        C611   1.392       .  A
C611        C612   1.396       .  A
C611        H615   1.085       .  S
C612        C613   1.405       .  A
C613        H616   1.084       .  S
C617        C618   1.408       .  A
C617        C622   1.402       .  A
C617       Br624   1.930       .  S
C619        C620   1.402       .  A
C619       Br626   1.930       .  S
C620        C621   1.408       .  A
C620       Br625   1.929       .  S
C622       Br623   1.931       .  S
C627        C628   1.412   1_565  A
C627        C632   1.413       .  A
C627       Br634   1.929       .  S
C629        C630   1.417       .  A
C629       Br636   1.928       .  S
C630        C631   1.411       .  A
C630       Br635   1.927       .  S
C632       Br633   1.930       .  S
C637        C638   1.407       .  A
C637        C642   1.401       .  A
C637       Br644   1.930       .  S
C639        C640   1.402       .  A
C639       Br646   1.930       .  S
C640        C641   1.408       .  A
C640       Br645   1.931       .  S
C642       Br643   1.931       .  S
C647        C648   1.412       .  A
C647        C652   1.416       .  A
C647       Br654   1.928       .  S
C649        C650   1.415       .  A
C649       Br656   1.930       .  S
C650        C651   1.411       .  A
C650       Br655   1.929       .  S
C652       Br653   1.928       .  S
