geometry optimzed in LAMMPS
_audit_creation_date              2020-11-30 
_audit_creation_method            'lammps2cif' 
_symmetry_space_group_name_H-M    'P1' 
_symmetry_Int_Tables_number       1 
_symmetry_cell_setting            triclinic 
loop_ 
_symmetry_equiv_pos_as_xyz 
  x,y,z 
_cell_length_a                    55.19883168 
_cell_length_b                    75.93885207366839 
_cell_length_c                    43.566963546363255 
_cell_angle_alpha                 90.05268448148364 
_cell_angle_beta                  90.0751144738694 
_cell_angle_gamma                 89.8783110909134 
loop_ 
_atom_site_label 
_atom_site_type_symbol 
_atom_site_fract_x 
_atom_site_fract_y 
_atom_site_fract_z 
_atom_site_charge 
N1          N  0.72344439  0.21630195  0.39397136    -0.26000
N2          N  0.70846562  0.20978522  0.41478033    -0.33900
C3          C  0.71294179  0.21757996  0.44199882     0.02300
C4          C  0.73158377  0.22947060  0.43804204     0.08300
C5          C  0.73780779  0.22837106  0.40742945    -0.04800
H6          H  0.70311251  0.21495277  0.46296520     0.09000
H7          H  0.75155232  0.23592893  0.39567332     0.10200
Cu8        Cu  0.68165199  0.19124364  0.40520669     0.44200
Cu9        Cu  0.72347658  0.20912831  0.34783367     0.42000
Cu10       Cu  0.67356484  0.18195676  0.32454624     0.43900
N11         N  0.65391065  0.17542598  0.38806361    -0.33400
N12         N  0.65043399  0.17294546  0.35833650    -0.27700
C13         C  0.63003159  0.16364006  0.35410505    -0.03800
C14         C  0.62036091  0.15976120  0.38247337     0.08400
C15         C  0.63593865  0.16740805  0.40360550     0.02200
H16         H  0.62273754  0.15999614  0.33193211     0.09900
H17         H  0.63382134  0.16776915  0.42828197     0.09000
N18         N  0.70013708  0.19038641  0.29458015    -0.34900
N19         N  0.71867800  0.20028353  0.30301020    -0.27100
C20         C  0.73267606  0.20337878  0.27830036    -0.02300
C21         C  0.72235245  0.19498494  0.25336439     0.06300
C22         C  0.70179930  0.18689168  0.26438632     0.04400
H23         H  0.74900425  0.21123650  0.27846739     0.09500
H24         H  0.68892880  0.17911247  0.25146337     0.08300
N25         N  0.82380933  0.18544621  0.06158301    -0.26000
N26         N  0.82702310  0.19680469  0.03896912    -0.33900
C27         C  0.84806450  0.19316496  0.02477817     0.02300
C28         C  0.85842068  0.17870583  0.03885491     0.08300
C29         C  0.84257963  0.17412861  0.06212931    -0.04800
H30         H  0.85521400  0.20044938  0.00548772     0.09000
H31         H  0.84479952  0.16368772  0.07877951     0.10200
Cu32       Cu  0.80247502  0.21646296  0.02779145     0.44200
Cu33       Cu  0.79515031  0.18673422  0.09223828     0.42000
Cu34       Cu  0.75003495  0.22031143  0.07680601     0.43900
N35         N  0.77399752  0.23359462  0.01918454    -0.33400
N36         N  0.75458140  0.23482148  0.03683451    -0.27700
C37         C  0.73926817  0.24674232  0.02464307    -0.03800
C38         C  0.74963838  0.25326022  0.99818089     0.08400
C39         C  0.77158027  0.24468680  0.99530659     0.02200
H40         H  0.72188679  0.25032430  0.03428489     0.09900
H41         H  0.78472495  0.24625187  0.97711508     0.09000
N42         N  0.75123331  0.20562504  0.11698574    -0.34900
N43         N  0.76765169  0.19331365  0.12257959    -0.27100
C44         C  0.76469335  0.18734304  0.15141199    -0.02300
C45         C  0.74551565  0.19632386  0.16441125     0.06300
C46         C  0.73737761  0.20779858  0.14210276     0.04400
H47         H  0.77627570  0.17772802  0.16244582     0.09500
H48         H  0.72310710  0.21750422  0.14433231     0.08300
N49         N  0.53582901  0.89880691  0.55353297    -0.26000
N50         N  0.52343286  0.88394838  0.55504772    -0.33900
C51         C  0.53886570  0.87047801  0.55957906     0.02300
C52         C  0.56206653  0.87713147  0.56163371     0.08300
C53         C  0.55953325  0.89517409  0.55774551    -0.04800
H54         H  0.53353576  0.85682308  0.56154740     0.09000
H55         H  0.57387374  0.90485605  0.55713511     0.10200
Cu56       Cu  0.48601585  0.88246217  0.55155691     0.44200
Cu57       Cu  0.51960914  0.92295087  0.54332454     0.42000
Cu58       Cu  0.45415885  0.92140930  0.52806925     0.43900
N59         N  0.44864232  0.88358365  0.54700136    -0.33400
N60         N  0.43691453  0.89766851  0.53708116    -0.27700
C61         C  0.41304666  0.89406633  0.53593114    -0.03800
C62         C  0.40960932  0.87701703  0.54616482     0.08400
C63         C  0.43256094  0.87076661  0.55302652     0.02200
H64         H  0.39915830  0.90336448  0.52916783     0.09900
H65         H  0.43725860  0.85784557  0.56165049     0.09000
N66         N  0.47537991  0.94383776  0.52343732    -0.34900
N67         N  0.49889943  0.94449155  0.52913732    -0.27100
C68         C  0.50679089  0.96097576  0.52387180    -0.02300
C69         C  0.48733046  0.97129497  0.51443242     0.06300
C70         C  0.46773504  0.95986057  0.51449224     0.04400
H71         H  0.52543416  0.96502228  0.52658859     0.09500
H72         H  0.44915001  0.96286222  0.50861999     0.08300
N73         N  0.44208569  0.11490500  0.42387470    -0.26000
N74         N  0.45572183  0.12652762  0.40938315    -0.33900
C75         C  0.44142235  0.13878413  0.39640086     0.02300
C76         C  0.41764514  0.13493823  0.40340610     0.08300
C77         C  0.41864677  0.11969177  0.42089594    -0.04800
H78         H  0.44792318  0.14992209  0.38333797     0.09000
H79         H  0.40350035  0.11246344  0.43027225     0.10200
Cu80       Cu  0.49326608  0.12613060  0.40944679     0.44200
Cu81       Cu  0.45662528  0.09285215  0.44581893     0.42000
Cu82       Cu  0.52286763  0.09278639  0.45405266     0.43900
N83         N  0.53037651  0.12549494  0.41666555    -0.33400
N84         N  0.54126768  0.11370088  0.43422123    -0.27700
C85         C  0.56507572  0.11747356  0.43567934    -0.03800
C86         C  0.56935603  0.13221160  0.41785791     0.08400
C87         C  0.54693648  0.13695046  0.40616377     0.02200
H88         H  0.57831971  0.10993597  0.44847489     0.09900
H89         H  0.54281369  0.14814168  0.39171085     0.09000
N90         N  0.50061592  0.07197521  0.46657341    -0.34900
N91         N  0.47678854  0.07183843  0.46334574    -0.27100
C92         C  0.46842503  0.05588587  0.47158531    -0.02300
C93         C  0.48789136  0.04540646  0.48043990     0.06300
C94         C  0.50797487  0.05617821  0.47698110     0.04400
H95         H  0.44954328  0.05217395  0.47060640     0.09500
H96         H  0.52675296  0.05268478  0.48064435     0.08300
N97         N  0.16404853  0.84975285  0.90640913    -0.26000
N98         N  0.16024301  0.84139409  0.93259509    -0.33900
C99         C  0.14188846  0.84935926  0.94754369     0.02300
C100        C  0.13402772  0.86348723  0.92999935     0.08300
C101        C  0.14857929  0.86339524  0.90427224    -0.04800
H102        H  0.13476390  0.84512543  0.96944374     0.09000
H103        H  0.14731321  0.87214649  0.88474864     0.10200
Cu104      Cu  0.18030953  0.81958544  0.94677672     0.44200
Cu105      Cu  0.18805413  0.84137935  0.87284064     0.42000
Cu106      Cu  0.22292343  0.80277703  0.89039581     0.43900
N107        N  0.20475562  0.79923416  0.95546047    -0.33400
N108        N  0.22028698  0.79324056  0.93480068    -0.27700
C109        C  0.23414984  0.78065354  0.94763486    -0.03800
C110        C  0.22700867  0.77865214  0.97773063     0.08400
C111        C  0.20837439  0.79057510  0.98206512     0.02200
H112        H  0.24859847  0.77369350  0.93600689     0.09900
H113        H  0.19846622  0.79299980  0.00306467     0.09000
N114        N  0.22309850  0.81471620  0.84766628    -0.34900
N115        N  0.21038236  0.82901560  0.84118418    -0.27100
C116        C  0.21409110  0.83338133  0.81162118    -0.02300
C117        C  0.22991816  0.82124053  0.79913276     0.06300
C118        C  0.23529272  0.80959847  0.82246759     0.04400
H119        H  0.20575178  0.84446380  0.80009780     0.09500
H120        H  0.24706037  0.79820678  0.82123429     0.08300
N121        N  0.32810648  0.83700754  0.60462741    -0.26000
N122        N  0.32433341  0.83402180  0.57508196    -0.33900
C123        C  0.34279686  0.84103216  0.55895866     0.02300
C124        C  0.35899808  0.84847806  0.57953262     0.08300
C125        C  0.34919632  0.84556528  0.60816093    -0.04800
H126        H  0.34479709  0.84010769  0.53430975     0.09000
H127        H  0.35681951  0.84942103  0.63004461     0.10200
Cu128      Cu  0.29560058  0.81872223  0.55899227     0.44200
Cu129      Cu  0.30465514  0.82969292  0.63936071     0.42000
Cu130      Cu  0.25562754  0.80134299  0.61868575     0.43900
N131        N  0.26819273  0.80034265  0.55105177    -0.33400
N132        N  0.25405571  0.79388422  0.57283266    -0.27700
C133        C  0.23917580  0.78177181  0.56045667    -0.03800
C134        C  0.24415165  0.78059017  0.52950047     0.08400
C135        C  0.26261345  0.79247008  0.52423105     0.02200
H136        H  0.22597166  0.77422148  0.57318273     0.09900
H137        H  0.27166129  0.79496567  0.50265875     0.09000
N138        N  0.26016142  0.81142537  0.66263808    -0.34900
N139        N  0.27824104  0.82197494  0.67018521    -0.27100
C140        C  0.27604561  0.82660431  0.69987425    -0.02300
C141        C  0.25562868  0.81853820  0.71142554     0.06300
C142        C  0.24595908  0.80900784  0.68736410     0.04400
H143        H  0.28834963  0.83522346  0.71203826     0.09500
H144        H  0.22977988  0.80099215  0.68771328     0.08300
N145        N  0.04635142  0.90409381  0.95434826    -0.26000
N146        N  0.03349130  0.88945715  0.95629994    -0.33900
C147        C  0.04854709  0.87553147  0.95619544     0.02300
C148        C  0.07198853  0.88160145  0.95360838     0.08300
C149        C  0.07000406  0.89979575  0.95246336    -0.04800
H150        H  0.04276747  0.86193230  0.95693037     0.09000
H151        H  0.08460965  0.90920531  0.95053561     0.10200
Cu152      Cu  0.99600130  0.88858530  0.95635854     0.44200
Cu153      Cu  0.03089083  0.92915054  0.95488864     0.42000
Cu154      Cu  0.96469687  0.92967701  0.95311374     0.43900
N155        N  0.95886546  0.89050233  0.95048358    -0.33400
N156        N  0.94732312  0.90571391  0.94854310    -0.27700
C157        C  0.92387451  0.90269522  0.94197986    -0.03800
C158        C  0.92049237  0.88470343  0.93992414     0.08400
C159        C  0.94307210  0.87735916  0.94546167     0.02200
H160        H  0.91039792  0.91285597  0.93839167     0.09900
H161        H  0.94794773  0.86356412  0.94456453     0.09000
N162        N  0.98597131  0.95193218  0.95747447    -0.34900
N163        N  0.00991869  0.95192009  0.95823555    -0.27100
C164        C  0.01764670  0.96854192  0.96265435    -0.02300
C165        C  0.99757523  0.97953641  0.96467326     0.06300
C166        C  0.97785974  0.96847216  0.96120741     0.04400
H167        H  0.03648791  0.97225623  0.96463905     0.09500
H168        H  0.95889621  0.97201245  0.96238456     0.08300
N169        N  0.03611546  0.12919150  0.01833162    -0.26000
N170        N  0.02327283  0.14379212  0.01507320    -0.33900
C171        C  0.03815049  0.15774160  0.01724788     0.02300
C172        C  0.06136141  0.15164083  0.02262054     0.08300
C173        C  0.05944937  0.13346619  0.02311233    -0.04800
H174        H  0.03232641  0.17134379  0.01629134     0.09000
H175        H  0.07387559  0.12402649  0.02672961     0.10200
Cu176      Cu  0.98579648  0.14421266  0.01193553     0.44200
Cu177      Cu  0.02143072  0.10412739  0.01599814     0.42000
Cu178      Cu  0.95638431  0.10159431  0.01570256     0.43900
N179        N  0.94890999  0.14091360  0.01867703    -0.33400
N180        N  0.93842787  0.12535226  0.02141446    -0.27700
C181        C  0.91496158  0.12769332  0.02858066    -0.03800
C182        C  0.91038497  0.14555230  0.03007213     0.08400
C183        C  0.93230583  0.15358206  0.02368445     0.02200
H184        H  0.90219115  0.11715039  0.03254488     0.09900
H185        H  0.93616990  0.16754168  0.02379211     0.09000
N186        N  0.97867115  0.08005223  0.00805694    -0.34900
N187        N  0.00256118  0.08093769  0.00869644    -0.27100
C188        C  0.01179748  0.06499840  0.00199917    -0.02300
C189        C  0.99279458  0.05348941  0.99664410     0.06300
C190        C  0.97203803  0.06354329  0.00075907     0.04400
H191        H  0.03096209  0.06219914  0.00019941     0.09500
H192        H  0.95344588  0.05926572  0.99847862     0.08300
N193        N  0.15454075  0.17904023  0.07641501    -0.26000
N194        N  0.15075535  0.18883965  0.05174751    -0.33900
C195        C  0.13131153  0.18256738  0.03661333     0.02300
C196        C  0.12264769  0.16806994  0.05241961     0.08300
C197        C  0.13786626  0.16617253  0.07735877    -0.04800
H198        H  0.12424225  0.18804057  0.01549940     0.09000
H199        H  0.13663788  0.15634704  0.09525734     0.10200
Cu200      Cu  0.17250399  0.21001257  0.03902183     0.44200
Cu201      Cu  0.18126353  0.18374071  0.10891041     0.42000
Cu202      Cu  0.22000182  0.22037893  0.09310308     0.43900
N203        N  0.19817838  0.22966863  0.03177848    -0.33400
N204        N  0.21543129  0.23334872  0.05187296    -0.27700
C205        C  0.22946103  0.24628801  0.04074678    -0.03800
C206        C  0.22065290  0.25097565  0.01232297     0.08400
C207        C  0.20085173  0.24022716  0.00715938     0.02200
H208        H  0.24510032  0.25169840  0.05237730     0.09900
H209        H  0.18943656  0.23994583  0.98695779     0.09000
N210        N  0.22225941  0.20573193  0.13289849    -0.34900
N211        N  0.20805229  0.19217714  0.13890387    -0.27100
C212        C  0.21341984  0.18595481  0.16703603    -0.02300
C213        C  0.23190946  0.19610110  0.17898648     0.06300
C214        C  0.23707692  0.20851061  0.15690626     0.04400
H215        H  0.20414244  0.17518312  0.17819108     0.09500
H216        H  0.25016727  0.21906234  0.15843604     0.08300
N217        N  0.32898223  0.17313488  0.37367866    -0.26000
N218        N  0.32357461  0.17551286  0.40296390    -0.33900
C219        C  0.33934254  0.16631357  0.42030515     0.02300
C220        C  0.35567215  0.15799057  0.40107631     0.08300
C221        C  0.34857846  0.16261816  0.37164585    -0.04800
H222        H  0.33921185  0.16598269  0.44513066     0.09000
H223        H  0.35671023  0.15836892  0.35029893     0.10200
Cu224      Cu  0.29582041  0.19195980  0.41805332     0.44200
Cu225      Cu  0.30841031  0.18322192  0.33775719     0.42000
Cu226      Cu  0.25729467  0.21057365  0.35925027     0.43900
N227        N  0.26946366  0.21096834  0.42662989    -0.33400
N228        N  0.25548417  0.21781181  0.40500440    -0.27700
C229        C  0.24146185  0.23045403  0.41741310    -0.03800
C230        C  0.24690374  0.23157080  0.44825367     0.08400
C231        C  0.26470275  0.21911031  0.45342504     0.02200
H232        H  0.22879528  0.23855355  0.40471736     0.09900
H233        H  0.27403345  0.21651745  0.47480862     0.09000
N234        N  0.26347491  0.20176884  0.31497050    -0.34900
N235        N  0.28229192  0.19198315  0.30692998    -0.27100
C236        C  0.28064314  0.18821835  0.27679635    -0.02300
C237        C  0.25982871  0.19601523  0.26560104     0.06300
C238        C  0.24937152  0.20450374  0.29023757     0.04400
H239        H  0.29342918  0.18019174  0.26417245     0.09500
H240        H  0.23263495  0.21194863  0.29032227     0.08300
N241        N  0.83901827  0.84035943  0.90396986    -0.26000
N242        N  0.84332253  0.82897680  0.92629581    -0.33900
C243        C  0.86344297  0.83386828  0.94144046     0.02300
C244        C  0.87204031  0.84917426  0.92837632     0.08300
C245        C  0.85614786  0.85295484  0.90462729    -0.04800
H246        H  0.87124441  0.82678250  0.96060056     0.09000
H247        H  0.85736364  0.86368783  0.88839426     0.10200
Cu248      Cu  0.82174059  0.80734130  0.93575096     0.44200
Cu249      Cu  0.81132085  0.83730607  0.87206353     0.42000
Cu250      Cu  0.77458561  0.79784786  0.88139066     0.43900
N251        N  0.79663626  0.78738640  0.94197930    -0.33400
N252        N  0.77929286  0.78382324  0.92195641    -0.27700
C253        C  0.76536253  0.77079553  0.93318416    -0.03800
C254        C  0.77445625  0.76600277  0.96153856     0.08400
C255        C  0.79420842  0.77676201  0.96649128     0.02200
H256        H  0.74944803  0.76556295  0.92191476     0.09900
H257        H  0.80559261  0.77717739  0.98671507     0.09000
N258        N  0.77226128  0.81465331  0.84381294    -0.34900
N259        N  0.78526752  0.82916573  0.84064851    -0.27100
C260        C  0.77971478  0.83675989  0.81360463    -0.02300
C261        C  0.76242143  0.82653744  0.79924651     0.06300
C262        C  0.75811891  0.81264046  0.81887366     0.04400
H263        H  0.78808786  0.84858453  0.80477627     0.09500
H264        H  0.74595584  0.80169304  0.81509847     0.08300
N265        N  0.65768297  0.85075110  0.61055878    -0.26000
N266        N  0.65396987  0.84139843  0.58532863    -0.33900
C267        C  0.63421495  0.84774243  0.57083288     0.02300
C268        C  0.62526717  0.86185884  0.58757719     0.08300
C269        C  0.64067446  0.86343624  0.61244473    -0.04800
H270        H  0.62705307  0.84255503  0.54954766     0.09000
H271        H  0.63925212  0.87284317  0.63102667     0.10200
Cu272      Cu  0.67612590  0.82055972  0.57126570     0.44200
Cu273      Cu  0.68458937  0.84534358  0.64274179     0.42000
Cu274      Cu  0.72426597  0.80919563  0.62389050     0.43900
N275        N  0.70144506  0.80065836  0.56273579    -0.33400
N276        N  0.71901838  0.79660757  0.58218925    -0.27700
C277        C  0.73229855  0.78333213  0.57048598    -0.03800
C278        C  0.72266133  0.77882272  0.54234427     0.08400
C279        C  0.70315449  0.79002927  0.53801173     0.02200
H280        H  0.74784149  0.77744190  0.58165915     0.09900
H281        H  0.69113639  0.79045699  0.51838740     0.09000
N282        N  0.72572948  0.82265569  0.66524499    -0.34900
N283        N  0.71119235  0.83590395  0.67239905    -0.27100
C284        C  0.71588648  0.84101779  0.70143394    -0.02300
C285        C  0.73426106  0.83048308  0.71281918     0.06300
C286        C  0.74006651  0.81900290  0.68940326     0.04400
H287        H  0.70618844  0.85127245  0.71356858     0.09500
H288        H  0.75322039  0.80842583  0.69013239     0.08300
N289        N  0.43878486  0.40769640  0.94354075    -0.26000
N290        N  0.45012130  0.39621545  0.92573742    -0.33900
C291        C  0.43430225  0.38379126  0.91674224     0.02300
C292        C  0.41196555  0.38751519  0.92968824     0.08300
C293        C  0.41550227  0.40270913  0.94664091    -0.04800
H294        H  0.43895541  0.37258181  0.90257276     0.09000
H295        H  0.40209996  0.40969847  0.96007725     0.10200
Cu296      Cu  0.48709941  0.39667212  0.91660016     0.44200
Cu297      Cu  0.45546519  0.42978393  0.96229176     0.42000
Cu298      Cu  0.52100277  0.43020548  0.95531557     0.43900
N299        N  0.52476568  0.39708465  0.91773935    -0.33400
N300        N  0.53715340  0.40892884  0.93347981    -0.27700
C301        C  0.56081978  0.40465779  0.93277604    -0.03800
C302        C  0.56351956  0.38954439  0.91539470     0.08400
C303        C  0.54028509  0.38510302  0.90614544     0.02200
H304        H  0.57500025  0.41194785  0.94427856     0.09900
H305        H  0.53492582  0.37357567  0.89322448     0.09000
N306        N  0.50080974  0.45113645  0.97221319    -0.34900
N307        N  0.47696123  0.45110131  0.97477061    -0.27100
C308        C  0.46960791  0.46707728  0.98446809    -0.02300
C309        C  0.48982121  0.47776138  0.98816786     0.06300
C310        C  0.50925156  0.46707798  0.98019720     0.04400
H311        H  0.45083758  0.47068066  0.98780463     0.09500
H312        H  0.52815578  0.47070340  0.97910434     0.08300
N313        N  0.54632458  0.62511129  0.04010893    -0.26000
N314        N  0.53506830  0.63967977  0.04879294    -0.33900
C315        C  0.55170499  0.65185950  0.05646005     0.02300
C316        C  0.57448527  0.64467015  0.05189584     0.08300
C317        C  0.57040273  0.62777730  0.04132184    -0.04800
H318        H  0.54751897  0.66505550  0.06422342     0.09000
H319        H  0.58394471  0.61798717  0.03563788     0.10200
Cu320      Cu  0.49760632  0.64249898  0.04885626     0.44200
Cu321      Cu  0.52852732  0.60182452  0.02930680     0.42000
Cu322      Cu  0.46318777  0.60259834  0.03738947     0.43900
N323        N  0.45998162  0.64170057  0.04818647    -0.33400
N324        N  0.44745182  0.62696818  0.04531914    -0.27700
C325        C  0.42368529  0.63068283  0.04760736    -0.03800
C326        C  0.42115354  0.64866341  0.05176019     0.08400
C327        C  0.44447969  0.65524384  0.05178471     0.02200
H328        H  0.40935583  0.62102361  0.04605708     0.09900
H329        H  0.44982742  0.66881866  0.05502375     0.09000
N330        N  0.48286139  0.58008877  0.02715331    -0.34900
N331        N  0.50665756  0.57978180  0.02400886    -0.27100
C332        C  0.51370608  0.56322302  0.01757076    -0.02300
C333        C  0.49334191  0.55251148  0.01651819     0.06300
C334        C  0.47412328  0.56377481  0.02269729     0.04400
H335        H  0.53234222  0.55938557  0.01384412     0.09500
H336        H  0.45512634  0.56044938  0.02412470     0.08300
N337        N  0.82719410  0.33453808  0.56837917    -0.26000
N338        N  0.83143282  0.32425730  0.54443435    -0.33900
C339        C  0.85261044  0.32902145  0.53158936     0.02300
C340        C  0.86198471  0.34307922  0.54795559     0.08300
C341        C  0.84536814  0.34623690  0.57112270    -0.04800
H342        H  0.86072771  0.32260229  0.51193858     0.09000
H343        H  0.84682882  0.35583201  0.58939694     0.10200
Cu344      Cu  0.80850828  0.30387223  0.53075952     0.44200
Cu345      Cu  0.79829404  0.33108909  0.59830391     0.42000
Cu346      Cu  0.75934039  0.29384838  0.58286320     0.43900
N347        N  0.78264090  0.28444211  0.52237177    -0.33400
N348        N  0.76483268  0.28073408  0.54160966    -0.27700
C349        C  0.75091377  0.26798665  0.52937027    -0.03800
C350        C  0.76040774  0.26349778  0.50113072     0.08400
C351        C  0.78045929  0.27414414  0.49731472     0.02200
H352        H  0.73478926  0.26268197  0.53997358     0.09900
H353        H  0.79231231  0.27462290  0.47757553     0.09000
N354        N  0.75662228  0.30936772  0.62196854    -0.34900
N355        N  0.77065971  0.32311632  0.62749549    -0.27100
C356        C  0.76485705  0.32993038  0.65507873    -0.02300
C357        C  0.74629846  0.31999716  0.66728951     0.06300
C358        C  0.74150984  0.30707795  0.64584379     0.04400
H359        H  0.77392533  0.34097453  0.66575514     0.09500
H360        H  0.72843072  0.29654224  0.64772305     0.08300
N361        N  0.64309830  0.34690648  0.85597265    -0.26000
N362        N  0.64555726  0.34368182  0.88566058    -0.33900
C363        C  0.62738747  0.35170500  0.90091737     0.02300
C364        C  0.61268346  0.36015189  0.87970324     0.08300
C365        C  0.62309002  0.35672205  0.85151577    -0.04800
H366        H  0.62461130  0.35091519  0.92545625     0.09000
H367        H  0.61664796  0.36111585  0.82933686     0.10200
Cu368      Cu  0.67233588  0.32720510  0.90352665     0.44200
Cu369      Cu  0.66711455  0.33822359  0.82249251     0.42000
Cu370      Cu  0.71541697  0.30995774  0.84772579     0.43900
N371        N  0.69895418  0.30860069  0.91382063    -0.33400
N372        N  0.71454218  0.30239243  0.89341169    -0.27700
C373        C  0.72864562  0.29015574  0.90685534    -0.03800
C374        C  0.72158356  0.28860532  0.93706732     0.08400
C375        C  0.70274877  0.30041377  0.94083206     0.02200
H376        H  0.74268182  0.28272640  0.89529504     0.09900
H377        H  0.69228620  0.30266899  0.96145273     0.09000
N378        N  0.71190394  0.31857978  0.80281401    -0.34900
N379        N  0.69409419  0.32893837  0.79341631    -0.27100
C380        C  0.69680062  0.33208245  0.76319511    -0.02300
C381        C  0.71725485  0.32324937  0.75330696     0.06300
C382        C  0.72640079  0.31481949  0.77887462     0.04400
H383        H  0.68475908  0.34015046  0.74950766     0.09500
H384        H  0.74234313  0.30652923  0.78002588     0.08300
N385        N  0.15798815  0.67041423  0.40241215    -0.26000
N386        N  0.15178430  0.68090228  0.42538250    -0.33900
C387        C  0.13192506  0.67430953  0.43911679     0.02300
C388        C  0.12550885  0.65885257  0.42423915     0.08300
C389        C  0.14251911  0.65675267  0.40128095    -0.04800
H390        H  0.12292554  0.68029702  0.45855793     0.09000
H391        H  0.14311460  0.64636250  0.38428701     0.10200
Cu392      Cu  0.17091977  0.70354161  0.43744831     0.44200
Cu393      Cu  0.18560578  0.67590651  0.37150847     0.42000
Cu394      Cu  0.21930508  0.71574612  0.38570096     0.43900
N395        N  0.19485791  0.72421075  0.44590376    -0.33400
N396        N  0.21258156  0.72853996  0.42694384    -0.27700
C397        C  0.22554907  0.74172507  0.43941092    -0.03800
C398        C  0.21551521  0.74587780  0.46749009     0.08400
C399        C  0.19612996  0.73455930  0.47100957     0.02200
H400        H  0.24145740  0.74753938  0.42910269     0.09900
H401        H  0.18423330  0.73358979  0.49065005     0.09000
N402        N  0.22268918  0.70093981  0.34587307    -0.34900
N403        N  0.21053283  0.68623394  0.34071519    -0.27100
C404        C  0.21577476  0.68036714  0.31229902    -0.02300
C405        C  0.23200736  0.69193480  0.29916589     0.06300
C406        C  0.23600622  0.70481355  0.32093957     0.04400
H407        H  0.20774800  0.66888662  0.30168089     0.09500
H408        H  0.24717139  0.71642411  0.31853903     0.08300
N409        N  0.26593090  0.72913916  0.08069066    -0.26000
N410        N  0.28153990  0.72429434  0.05923425    -0.33900
C411        C  0.27739038  0.73382355  0.03370802     0.02300
C412        C  0.25833846  0.74515110  0.03952228     0.08300
C413        C  0.25147541  0.74188531  0.06941253    -0.04800
H414        H  0.28719879  0.73235087  0.01236970     0.09000
H415        H  0.23675424  0.74802321  0.08185959     0.10200
Cu416      Cu  0.30690528  0.70430107  0.06512641     0.44200
Cu417      Cu  0.26387334  0.71750413  0.12371825     0.42000
Cu418      Cu  0.30002655  0.67840843  0.13467495     0.43900
N419        N  0.32878274  0.68292821  0.07629879    -0.33400
N420        N  0.32538753  0.67300050  0.10084951    -0.27700
C421        C  0.34228084  0.66022321  0.10141021    -0.03800
C422        C  0.35730357  0.66239993  0.07640216     0.08400
C423        C  0.34824411  0.67690401  0.06089395     0.02200
H424        H  0.34414646  0.65054095  0.11946851     0.09900
H425        H  0.35530072  0.68270245  0.04007703     0.09000
N426        N  0.27689863  0.68844015  0.16789914    -0.34900
N427        N  0.26389526  0.70292253  0.16401658    -0.27100
C428        C  0.25153465  0.70631691  0.18996843    -0.02300
C429        C  0.25707955  0.69335507  0.21104388     0.06300
C430        C  0.27319735  0.68223995  0.19645147     0.04400
H431        H  0.23960570  0.71747895  0.19329943     0.09500
H432        H  0.28185912  0.67066653  0.20595290     0.08300
N433        N  0.65778599  0.68400709  0.10907857    -0.26000
N434        N  0.66170146  0.68523665  0.07921385    -0.33900
C435        C  0.64289656  0.67794652  0.06414019     0.02300
C436        C  0.62628161  0.67209179  0.08562667     0.08300
C437        C  0.63623191  0.67624790  0.11380160    -0.04800
H438        H  0.64106204  0.67751529  0.03942452     0.09000
H439        H  0.62844453  0.67372728  0.13614369     0.10200
Cu440      Cu  0.69143132  0.69830473  0.06072692     0.44200
Cu441      Cu  0.68206170  0.69254109  0.14224342     0.42000
Cu442      Cu  0.73540132  0.71521934  0.11634683     0.43900
N443        N  0.72050620  0.71447308  0.04932505    -0.33400
N444        N  0.73634171  0.72061459  0.06951553    -0.27700
C445        C  0.75177232  0.73152570  0.05509138    -0.03800
C446        C  0.74533550  0.73226383  0.02450020     0.08400
C447        C  0.72546778  0.72136411  0.02155041     0.02200
H448        H  0.76610490  0.73882001  0.06628123     0.09900
H449        H  0.71489417  0.71906266  0.00101065     0.09000
N450        N  0.72926859  0.70885586  0.16215009    -0.34900
N451        N  0.70954386  0.70059838  0.17151833    -0.27100
C452        C  0.71082069  0.69819399  0.20206939    -0.02300
C453        C  0.73232746  0.70530188  0.21236323     0.06300
C454        C  0.74364223  0.71196020  0.18658558     0.04400
H455        H  0.69717824  0.69163162  0.21568691     0.09500
H456        H  0.76104667  0.71846173  0.18559442     0.08300
N457        N  0.82776573  0.68137677  0.40724864    -0.26000
N458        N  0.82528786  0.68472939  0.43689790    -0.33900
C459        C  0.84385727  0.67710664  0.45216077     0.02300
C460        C  0.85875253  0.66885358  0.43090934     0.08300
C461        C  0.84809696  0.67197093  0.40279442    -0.04800
H462        H  0.84695808  0.67825963  0.47660417     0.09000
H463        H  0.85476418  0.66782854  0.38058261     0.10200
Cu464      Cu  0.79820097  0.70136670  0.45405306     0.44200
Cu465      Cu  0.80397158  0.68965304  0.37332358     0.42000
Cu466      Cu  0.75533852  0.71763601  0.39592632     0.43900
N467        N  0.77138031  0.72031238  0.46244212    -0.33400
N468        N  0.75597838  0.72603973  0.44132339    -0.27700
C469        C  0.74193955  0.73873619  0.45355549    -0.03800
C470        C  0.74878282  0.74113726  0.48370975     0.08400
C471        C  0.76747748  0.72931294  0.48869060     0.02200
H472        H  0.72817416  0.74598052  0.44112831     0.09900
H473        H  0.77785583  0.72765663  0.50957782     0.09000
N474        N  0.75982970  0.70895935  0.35105564    -0.34900
N475        N  0.77798959  0.69865213  0.34269848    -0.27100
C476        C  0.77652018  0.69558700  0.31231726    -0.02300
C477        C  0.75650365  0.70443706  0.30113079     0.06300
C478        C  0.74628500  0.71277242  0.32618882     0.04400
H479        H  0.78917503  0.68762243  0.29936618     0.09500
H480        H  0.73035615  0.72110045  0.32633154     0.08300
N481        N  0.94211920  0.39722773  0.54117535    -0.26000
N482        N  0.95317589  0.38177088  0.54035495    -0.33900
C483        C  0.93661534  0.36894132  0.54396170     0.02300
C484        C  0.91406654  0.37672559  0.54754150     0.08300
C485        C  0.91828532  0.39465241  0.54590034    -0.04800
H486        H  0.94078083  0.35501889  0.54455040     0.09000
H487        H  0.90493111  0.40506178  0.54750119     0.10200
Cu488      Cu  0.99047361  0.37905042  0.53578298     0.44200
Cu489      Cu  0.95995236  0.42101808  0.53409747     0.42000
Cu490      Cu  0.02476258  0.41893319  0.51959489     0.43900
N491        N  0.02803890  0.37985818  0.53277818    -0.33400
N492        N  0.04049484  0.39415904  0.52568284    -0.27700
C493        C  0.06426859  0.39010331  0.52531260    -0.03800
C494        C  0.06688390  0.37256138  0.53319253     0.08400
C495        C  0.04357031  0.36647000  0.53778471     0.02200
H496        H  0.07864460  0.39939855  0.52074730     0.09900
H497        H  0.03826678  0.35327083  0.54420617     0.09000
N498        N  0.00454502  0.44217135  0.51767824    -0.34900
N499        N  0.98102562  0.44286211  0.52326219    -0.27100
C500        C  0.97337098  0.45960485  0.52026967    -0.02300
C501        C  0.99296250  0.47011801  0.51242150     0.06300
C502        C  0.01244005  0.45850660  0.51099580     0.04400
H503        H  0.95475163  0.46370257  0.52324362     0.09500
H504        H  0.03106657  0.46165061  0.50569758     0.08300
N505        N  0.93806998  0.61874888  0.46873471    -0.26000
N506        N  0.94925830  0.63301167  0.45877632    -0.33900
C507        C  0.93277843  0.64569629  0.45328326     0.02300
C508        C  0.91007491  0.63920739  0.46050874     0.08300
C509        C  0.91411397  0.62212001  0.47041179    -0.04800
H510        H  0.93707265  0.65874997  0.44501393     0.09000
H511        H  0.90057646  0.61269574  0.47754840     0.10200
Cu512      Cu  0.98653460  0.63474376  0.45416355     0.44200
Cu513      Cu  0.95638068  0.59521944  0.47752113     0.42000
Cu514      Cu  0.02212300  0.59510482  0.46341032     0.43900
N515        N  0.02402635  0.63420583  0.45188461    -0.33400
N516        N  0.03722670  0.61970479  0.45406148    -0.27700
C517        C  0.06079051  0.62398867  0.45081267    -0.03800
C518        C  0.06235567  0.64207904  0.44679937     0.08400
C519        C  0.03875051  0.64807766  0.44779874     0.02200
H520        H  0.07565242  0.61470567  0.45204744     0.09900
H521        H  0.03267003  0.66156457  0.44544362     0.09000
N522        N  0.00216419  0.57290138  0.47587940    -0.34900
N523        N  0.97859143  0.57304703  0.48136339    -0.27100
C524        C  0.97153162  0.55667881  0.48902415    -0.02300
C525        C  0.99153946  0.54556293  0.48836404     0.06300
C526        C  0.01063421  0.55640791  0.47989386     0.04400
H527        H  0.95302118  0.55315348  0.49422922     0.09500
H528        H  0.02940950  0.55267619  0.47701509     0.08300
N529        N  0.33269343  0.34279184  0.87482481    -0.26000
N530        N  0.32984011  0.34043030  0.90470892    -0.33900
C531        C  0.34764995  0.34911436  0.91962262     0.02300
C532        C  0.36241441  0.35705664  0.89792921     0.08300
C533        C  0.35246811  0.35265527  0.86993889    -0.04800
H534        H  0.35012070  0.34914719  0.94426118     0.09000
H535        H  0.35907050  0.35643283  0.84752138     0.10200
Cu536      Cu  0.30271848  0.32439819  0.92318606     0.44200
Cu537      Cu  0.30972552  0.33337473  0.84095516     0.42000
Cu538      Cu  0.25959833  0.30833461  0.86559863     0.43900
N539        N  0.27483643  0.30651151  0.93236677    -0.33400
N540        N  0.25931801  0.30097373  0.91126871    -0.27700
C541        C  0.24431084  0.28907287  0.92376834    -0.03800
C542        C  0.25060269  0.28697992  0.95410895     0.08400
C543        C  0.27001472  0.29815115  0.95897504     0.02200
H544        H  0.23025435  0.28213148  0.91138893     0.09900
H545        H  0.28020609  0.29978801  0.98001228     0.09000
N546        N  0.26447424  0.31531826  0.82017522    -0.34900
N547        N  0.28335375  0.32451650  0.81082718    -0.27100
C548        C  0.28178014  0.32689219  0.78026929    -0.02300
C549        C  0.26091356  0.31872978  0.77011285     0.06300
C550        C  0.25033912  0.31152940  0.79588910     0.04400
H551        H  0.29478967  0.33405077  0.76657370     0.09500
H552        H  0.23366022  0.30409583  0.79696151     0.08300
N553        N  0.14948919  0.33153719  0.58724267    -0.26000
N554        N  0.14972413  0.32630285  0.55827632    -0.33900
C555        C  0.13014634  0.33295793  0.54382967     0.02300
C556        C  0.11682935  0.34258669  0.56490084     0.08300
C557        C  0.12947647  0.34127783  0.59218808    -0.04800
H558        H  0.12552185  0.33047050  0.52008117     0.09000
H559        H  0.12464195  0.34715203  0.61397536     0.10200
Cu560      Cu  0.17556702  0.30901090  0.54084000     0.44200
Cu561      Cu  0.17682131  0.32572160  0.61852449     0.42000
Cu562      Cu  0.22421956  0.29630923  0.59320709     0.43900
N563        N  0.20140005  0.28981371  0.53107991    -0.33400
N564        N  0.21899835  0.28521242  0.55015141    -0.27700
C565        C  0.23201842  0.27212011  0.53740063    -0.03800
C566        C  0.22210314  0.26833421  0.50909203     0.08400
C567        C  0.20277057  0.27973141  0.50569408     0.02200
H568        H  0.24741520  0.26575357  0.54809609     0.09900
H569        H  0.19047560  0.28055016  0.48638313     0.09000
N570        N  0.22409442  0.30832387  0.63601535    -0.34900
N571        N  0.20665348  0.31905064  0.64528275    -0.27100
C572        C  0.21129476  0.32416629  0.67427566    -0.02300
C573        C  0.23260317  0.31626213  0.68357643     0.06300
C574        C  0.24028295  0.30629513  0.65890252     0.04400
H575        H  0.19974465  0.33271215  0.68774874     0.09500
H576        H  0.25613344  0.29790935  0.65783934     0.08300
C577        C  0.25181523  0.31798685  0.73916920    -0.12000
C578        C  0.24348369  0.31724454  0.71356981    -0.13600
C579        C  0.08983789  0.36272818  0.53666551    -0.15200
C580        C  0.09343060  0.35160645  0.56017466    -0.30400
H581        H  0.10463685  0.36565169  0.52107348     0.13800
H582        H  0.07958131  0.35018621  0.57769320     0.14400
C583        C  0.01271578  0.49779543  0.49253873    -0.12100
C584        C  0.99288477  0.48947636  0.50663159     0.10000
C585        C  0.97281318  0.49985552  0.51500201    -0.12100
C586        C  0.97246946  0.51798190  0.50923062    -0.12100
C587        C  0.99218724  0.52629262  0.49491331     0.10000
C588        C  0.01237292  0.51595824  0.48676110    -0.12100
H589        H  0.02843741  0.49027700  0.48554827     0.14000
H590        H  0.95731463  0.49405293  0.52625645     0.14000
H591        H  0.95672385  0.52546081  0.51624947     0.14000
H592        H  0.02784202  0.52181060  0.47550740     0.14000
C593        C  0.88251680  0.66035371  0.43571540    -0.15200
C594        C  0.88646843  0.64836912  0.45781160    -0.30400
H595        H  0.89654794  0.66290813  0.41883891     0.13800
H596        H  0.87171568  0.64440545  0.47275249     0.14400
C597        C  0.74120086  0.70532427  0.24348793    -0.12000
C598        C  0.74822965  0.70502250  0.26975976    -0.13600
C599        C  0.10464654  0.64716092  0.43027589    -0.15200
C600        C  0.08407810  0.65320345  0.44293205    -0.30400
H601        H  0.10559633  0.63365740  0.42211326     0.13800
H602        H  0.08244887  0.66708409  0.44863075     0.14400
C603        C  0.24107263  0.69166986  0.26819794    -0.12000
C604        C  0.24846350  0.69212555  0.24214031    -0.13600
C605        C  0.88564033  0.35172320  0.54279102    -0.15200
C606        C  0.89042100  0.36810632  0.55281841    -0.30400
H607        H  0.89913433  0.34464378  0.52946248     0.13800
H608        H  0.87629681  0.37573326  0.56401013     0.14400
C609        C  0.73559320  0.32174751  0.69725981    -0.12000
C610        C  0.72698470  0.32268927  0.72267471    -0.13600
C611        C  0.60233728  0.66404750  0.08023216    -0.15200
C612        C  0.59826299  0.65309760  0.05660593    -0.30400
H613        H  0.58816851  0.66635261  0.09706494     0.13800
H614        H  0.61308118  0.64937961  0.04152938     0.14400
C615        C  0.39866036  0.65888457  0.05610830    -0.15200
C616        C  0.37902931  0.65181980  0.06939005    -0.30400
H617        H  0.39888597  0.67281503  0.05046697     0.13800
H618        H  0.37963913  0.63834217  0.07769753     0.14400
C619        C  0.58626262  0.37965905  0.91031930    -0.15200
C620        C  0.58985787  0.36985609  0.88507501    -0.30400
H621        H  0.60076113  0.38111889  0.92701312     0.13800
H622        H  0.57624161  0.36970337  0.86704914     0.14400
C623        C  0.38928383  0.37728383  0.92684746    -0.15200
C624        C  0.38504133  0.36707548  0.90225915    -0.30400
H625        H  0.37547604  0.37879543  0.94440194     0.13800
H626        H  0.39801523  0.36685416  0.88353437     0.14400
C627        C  0.51281940  0.50523875  0.00175069    -0.12100
C628        C  0.49055879  0.49676273  0.99653168     0.10000
C629        C  0.46914580  0.50674785  0.99868857    -0.12100
C630        C  0.47001796  0.52476504  0.00536359    -0.12100
C631        C  0.49232520  0.53328238  0.01008576     0.10000
C632        C  0.51369130  0.52323493  0.00839852    -0.12100
H633        H  0.52971756  0.49804174  0.00071232     0.14000
H634        H  0.45164424  0.50077805  0.99477394     0.14000
H635        H  0.45314329  0.53199794  0.00636029     0.14000
H636        H  0.53120897  0.52919328  0.01224413     0.14000
C637        C  0.73149741  0.76535693  0.52178944    -0.12000
C638        C  0.73936601  0.75415788  0.50472030    -0.13600
C639        C  0.76427875  0.75349961  0.98276230    -0.12000
C640        C  0.75567900  0.74351082  0.00135109    -0.13600
C641        C  0.74393872  0.83024180  0.74352962    -0.12000
C642        C  0.75228768  0.82901775  0.76907698    -0.13600
C643        C  0.23025326  0.25515609  0.48769838    -0.12000
C644        C  0.23759178  0.24423517  0.46982487    -0.13600
C645        C  0.23083749  0.26394534  0.99205368    -0.12000
C646        C  0.23997216  0.27467995  0.97526747    -0.13600
C647        C  0.24216514  0.19515848  0.20925364    -0.12000
C648        C  0.25051709  0.19521799  0.23483064    -0.13600
C649        C  0.08300786  0.16256720  0.02806480    -0.15200
C650        C  0.10169974  0.15679517  0.04505635    -0.30400
H651        H  0.08279991  0.17603412  0.01969735     0.13800
H652        H  0.10096882  0.14383433  0.05553773     0.14400
C653        C  0.89791732  0.87561442  0.93112309    -0.15200
C654        C  0.89435229  0.85850982  0.93732116    -0.30400
H655        H  0.88373170  0.88326610  0.92008166     0.13800
H656        H  0.90780812  0.85120778  0.95035703     0.14400
C657        C  0.97590584  0.00856707  0.96531915    -0.12100
C658        C  0.99691854  0.99867424  0.97141825     0.10000
C659        C  0.01684630  0.00710397  0.98506174    -0.12100
C660        C  0.01557523  0.02492691  0.99305525    -0.12100
C661        C  0.99436192  0.03470682  0.98755358     0.10000
C662        C  0.97462648  0.02636023  0.97333782    -0.12100
H663        H  0.96036558  0.00258645  0.95434573     0.14000
H664        H  0.03323461  0.99985866  0.99030532     0.14000
H665        H  0.03105690  0.03091976  0.00414552     0.14000
H666        H  0.95817865  0.03356865  0.96823467     0.14000
C667        C  0.22473483  0.75840831  0.48946047    -0.12000
C668        C  0.23331134  0.76867768  0.50767418    -0.13600
C669        C  0.23764108  0.76702702  0.00010889    -0.12000
C670        C  0.24704594  0.75714168  0.01827305    -0.13600
C671        C  0.09387272  0.87048447  0.95136258    -0.15200
C672        C  0.11352068  0.87556690  0.93563344    -0.30400
H673        H  0.09290521  0.85718110  0.96042051     0.13800
H674        H  0.11360257  0.88825578  0.92414135     0.14400
C675        C  0.24637829  0.81977528  0.74220387    -0.12000
C676        C  0.23876101  0.82061395  0.76811173    -0.13600
C677        C  0.39628211  0.14518750  0.39339394    -0.15200
C678        C  0.37615974  0.14662118  0.41050085    -0.30400
H679        H  0.39792159  0.15285393  0.37246198     0.13800
H680        H  0.37534662  0.14027386  0.43281011     0.14400
C681        C  0.58439046  0.86664980  0.56608906    -0.15200
C682        C  0.60376627  0.87293853  0.58115901    -0.30400
H683        H  0.58414856  0.85296588  0.55880533     0.13800
H684        H  0.60315744  0.88609387  0.59094990     0.14400
C685        C  0.38622567  0.86786874  0.55007850    -0.15200
C686        C  0.38268767  0.85666836  0.57343250    -0.30400
H687        H  0.37121415  0.87139173  0.53512869     0.13800
H688        H  0.39699704  0.85463065  0.59021744     0.14400
C689        C  0.50840032  0.00057723  0.50974487    -0.12100
C690        C  0.48740401  0.99032703  0.50605307     0.10000
C691        C  0.46646415  0.99847924  0.49423232    -0.12100
C692        C  0.46655272  0.01632039  0.48621044    -0.12100
C693        C  0.48759253  0.02652951  0.48971221     0.10000
C694        C  0.50849057  0.01841610  0.50169999    -0.12100
H695        H  0.52485854  0.99491153  0.51894701     0.14000
H696        H  0.44993331  0.99111573  0.49086319     0.15600
H697        H  0.45013056  0.02198807  0.47689689     0.14000
H698        H  0.52500654  0.02581010  0.50504900     0.14000
C699        C  0.73115866  0.27648762  0.95940037    -0.12000
C700        C  0.73946568  0.26601125  0.97740124    -0.13600
C701        C  0.88183883  0.17054578  0.03088611    -0.15200
C702        C  0.88714267  0.15384874  0.03840737    -0.30400
H703        H  0.89453595  0.17822629  0.01740903     0.13800
H704        H  0.87372348  0.14576380  0.04989630     0.14400
C705        C  0.75045117  0.25116376  0.47932531    -0.12000
C706        C  0.74185076  0.24111572  0.46074921    -0.13600
C707        C  0.59714681  0.15071553  0.38789920    -0.15200
C708        C  0.59280308  0.14117609  0.41321494    -0.30400
H709        H  0.58366732  0.15124703  0.36973149     0.13800
H710        H  0.60699619  0.13933630  0.43021460     0.14400
C711        C  0.73746389  0.19540791  0.19576556    -0.12000
C712        C  0.73074309  0.19508768  0.22210920    -0.13600
loop_ 
_geom_bond_atom_site_label_1 
_geom_bond_atom_site_label_2 
_geom_bond_distance 
_geom_bond_site_symmetry_2 
_ccdc_geom_bond_type 
N1            N2   1.325       .  A
N1            C5   1.347       .  A
N1           Cu9   2.082       .  S
N2            C3   1.348       .  A
N2           Cu8   2.086       .  S
C3            C4   1.382       .  A
C3            H6   1.082       .  S
C4            C5   1.380       .  A
C4          C706   1.443       .  S
C5            H7   1.082       .  S
Cu8          N11   2.085       .  S
Cu9          N19   2.081       .  S
Cu10         N12   2.068       .  S
Cu10         N18   2.068       .  S
N11          N12   1.322       .  A
N11          C15   1.348       .  A
N12          C13   1.343       .  A
C13          C14   1.379       .  A
C13          H16   1.082       .  S
C14          C15   1.387       .  A
C14         C707   1.475       .  S
C15          H17   1.082       .  S
N18          N19   1.322       .  A
N18          C22   1.345       .  A
N19          C20   1.347       .  A
C20          C21   1.382       .  A
C20          H23   1.082       .  S
C21          C22   1.379       .  A
C21         C712   1.439       .  S
C22          H24   1.082       .  S
N25          N26   1.322       .  A
N25          C29   1.345       .  A
N25         Cu33   2.074       .  S
N26          C27   1.345       .  A
N26         Cu32   2.072       .  S
C27          C28   1.381       .  A
C27          H30   1.082       .  S
C28          C29   1.385       .  A
C28         C701   1.474       .  S
C29          H31   1.082       .  S
Cu32         N35   2.072       .  S
Cu33         N43   2.074       .  S
Cu34         N36   2.077       .  S
Cu34         N42   2.077       .  S
N35          N36   1.323       .  A
N35          C39   1.345   1_554  A
N36          C37   1.346       .  A
C37          C38   1.380   1_554  A
C37          H40   1.082       .  S
C38          C39   1.380       .  A
C38         C700   1.439       .  S
C39          H41   1.082       .  S
N42          N43   1.323       .  A
N42          C46   1.346       .  A
N43          C44   1.346       .  A
C44          C45   1.380       .  A
C44          H47   1.082       .  S
C45          C46   1.380       .  A
C45         C711   1.439       .  S
C46          H48   1.082       .  S
N49          N50   1.323       .  A
N49          C53   1.349       .  A
N49         Cu57   2.087       .  S
N50          C51   1.344       .  A
N50         Cu56   2.074       .  S
C51          C52   1.380       .  A
C51          H54   1.082       .  S
C52          C53   1.387       .  A
C52         C681   1.478       .  S
C53          H55   1.082       .  S
Cu56         N59   2.074       .  S
Cu57         N67   2.087       .  S
Cu58         N60   2.078       .  S
Cu58         N66   2.079       .  S
N59          N60   1.322       .  A
N59          C63   1.345       .  A
N60          C61   1.347       .  A
C61          C62   1.383       .  A
C61          H64   1.082       .  S
C62          C63   1.384       .  A
C62         C685   1.477       .  S
C63          H65   1.082       .  S
N66          N67   1.322       .  A
N66          C70   1.345       .  A
N67          C68   1.346       .  A
C68          C69   1.390       .  A
C68          H71   1.081       .  S
C69          C70   1.389       .  A
C69         C690   1.491       .  S
C70          H72   1.081       .  S
N73          N74   1.323       .  A
N73          C77   1.349       .  A
N73         Cu81   2.088       .  S
N74          C75   1.344       .  A
N74         Cu80   2.073       .  S
C75          C76   1.380       .  A
C75          H78   1.082       .  S
C76          C77   1.388       .  A
C76         C677   1.477       .  S
C77          H79   1.082       .  S
Cu80         N83   2.073       .  S
Cu81         N91   2.088       .  S
Cu82         N84   2.077       .  S
Cu82         N90   2.077       .  S
N83          N84   1.321       .  A
N83          C87   1.344       .  A
N84          C85   1.347       .  A
C85          C86   1.384       .  A
C85          H88   1.082       .  S
C86          C87   1.385       .  A
C86         C708   1.478       .  S
C87          H89   1.082       .  S
N90          N91   1.323       .  A
N90          C94   1.345       .  A
N91          C92   1.347       .  A
C92          C93   1.390       .  A
C92          H95   1.081       .  S
C93          C94   1.388       .  A
C93         C693   1.490       .  S
C94          H96   1.081       .  S
N97          N98   1.323       .  A
N97         C101   1.344       .  A
N97        Cu105   2.073       .  S
N98          C99   1.347       .  A
N98        Cu104   2.084       .  S
C99         C100   1.386       .  A
C99         H102   1.082       .  S
C100        C101   1.380       .  A
C100        C672   1.476       .  S
C101        H103   1.082       .  S
Cu104       N107   2.084       .  S
Cu105       N115   2.074       .  S
Cu106       N108   2.072       .  S
Cu106       N114   2.071       .  S
N107        N108   1.324       .  A
N107        C111   1.348       .  A
N108        C109   1.345       .  A
C109        C110   1.378       .  A
C109        H112   1.082       .  S
C110        C111   1.382       .  A
C110        C669   1.440   1_556  S
C111        H113   1.082   1_556  S
N114        N115   1.322       .  A
N114        C118   1.345       .  A
N115        C116   1.346       .  A
C116        C117   1.381       .  A
C116        H119   1.082       .  S
C117        C118   1.379       .  A
C117        C676   1.438       .  S
C118        H120   1.082       .  S
N121        N122   1.323       .  A
N121        C125   1.343       .  A
N121       Cu129   2.070       .  S
N122        C123   1.349       .  A
N122       Cu128   2.088       .  S
C123        C124   1.386       .  A
C123        H126   1.082       .  S
C124        C125   1.378       .  A
C124        C686   1.474       .  S
C125        H127   1.082       .  S
Cu128       N131   2.089       .  S
Cu129       N139   2.070       .  S
Cu130       N132   2.078       .  S
Cu130       N138   2.077       .  S
N131        N132   1.325       .  A
N131        C135   1.348       .  A
N132        C133   1.346       .  A
C133        C134   1.380       .  A
C133        H136   1.082       .  S
C134        C135   1.382       .  A
C134        C668   1.442       .  S
C135        H137   1.082       .  S
N138        N139   1.322       .  A
N138        C142   1.346       .  A
N139        C140   1.346       .  A
C140        C141   1.380       .  A
C140        H143   1.082       .  S
C141        C142   1.381       .  A
C141        C675   1.438       .  S
C142        H144   1.082       .  S
N145        N146   1.323       .  A
N145        C149   1.348       .  A
N145       Cu153   2.084       .  S
N146        C147   1.344       .  A
N146       Cu152   2.071   1_455  S
C147        C148   1.379       .  A
C147        H150   1.082       .  S
C148        C149   1.387       .  A
C148        C671   1.476       .  S
C149        H151   1.082       .  S
Cu152       N155   2.070       .  S
Cu153       N163   2.084       .  S
Cu154       N156   2.068       .  S
Cu154       N162   2.068       .  S
N155        N156   1.321       .  A
N155        C159   1.344       .  A
N156        C157   1.345       .  A
C157        C158   1.382       .  A
C157        H160   1.082       .  S
C158        C159   1.385       .  A
C158        C653   1.476       .  S
C159        H161   1.082       .  S
N162        N163   1.322   1_655  A
N162        C166   1.342       .  A
N163        C164   1.347       .  A
C164        C165   1.389   1_455  A
C164        H167   1.081       .  S
C165        C166   1.384       .  A
C165        C658   1.483       .  S
C166        H168   1.081       .  S
N169        N170   1.322       .  A
N169        C173   1.345       .  A
N169       Cu177   2.073       .  S
N170        C171   1.345       .  A
N170       Cu176   2.073   1_455  S
C171        C172   1.381       .  A
C171        H174   1.082       .  S
C172        C173   1.385       .  A
C172        C649   1.475       .  S
C173        H175   1.082       .  S
Cu176       N179   2.073       .  S
Cu177       N187   2.072       .  S
Cu178       N180   2.072       .  S
Cu178       N186   2.072       .  S
N179        N180   1.322       .  A
N179        C183   1.345       .  A
N180        C181   1.344       .  A
C181        C182   1.380       .  A
C181        H184   1.082       .  S
C182        C183   1.385       .  A
C182        C702   1.474       .  S
C183        H185   1.082       .  S
N186        N187   1.321   1_655  A
N186        C190   1.345       .  A
N187        C188   1.344       .  A
C188        C189   1.386   1_454  A
C188        H191   1.082       .  S
C189        C190   1.387   1_556  A
C189        C661   1.482       .  S
C190        H192   1.082   1_554  S
N193        N194   1.324       .  A
N193        C197   1.345       .  A
N193       Cu201   2.074       .  S
N194        C195   1.347       .  A
N194       Cu200   2.085       .  S
C195        C196   1.385       .  A
C195        H198   1.082       .  S
C196        C197   1.380       .  A
C196        C650   1.475       .  S
C197        H199   1.082       .  S
Cu200       N203   2.085       .  S
Cu201       N211   2.074       .  S
Cu202       N204   2.064       .  S
Cu202       N210   2.064       .  S
N203        N204   1.323       .  A
N203        C207   1.348       .  A
N204        C205   1.344       .  A
C205        C206   1.377       .  A
C205        H208   1.082       .  S
C206        C207   1.384       .  A
C206        C645   1.439   1_554  S
C207        H209   1.082   1_554  S
N210        N211   1.322       .  A
N210        C214   1.344       .  A
N211        C212   1.346       .  A
C212        C213   1.381       .  A
C212        H215   1.082       .  S
C213        C214   1.378       .  A
C213        C647   1.436       .  S
C214        H216   1.082       .  S
N217        N218   1.323       .  A
N217        C221   1.346       .  A
N217       Cu225   2.078       .  S
N218        C219   1.346       .  A
N218       Cu224   2.081       .  S
C219        C220   1.383       .  A
C219        H222   1.082       .  S
C220        C221   1.386       .  A
C220        C678   1.479       .  S
C221        H223   1.082       .  S
Cu224       N227   2.081       .  S
Cu225       N235   2.078       .  S
Cu226       N228   2.070       .  S
Cu226       N234   2.070       .  S
N227        N228   1.323       .  A
N227        C231   1.346       .  A
N228        C229   1.345       .  A
C229        C230   1.379       .  A
C229        H232   1.082       .  S
C230        C231   1.381       .  A
C230        C644   1.439       .  S
C231        H233   1.082       .  S
N234        N235   1.323       .  A
N234        C238   1.345       .  A
N235        C236   1.346       .  A
C236        C237   1.380       .  A
C236        H239   1.082       .  S
C237        C238   1.378       .  A
C237        C648   1.436       .  S
C238        H240   1.082       .  S
N241        N242   1.323       .  A
N241        C245   1.347       .  A
N241       Cu249   2.078       .  S
N242        C243   1.344       .  A
N242       Cu248   2.073       .  S
C243        C244   1.380       .  A
C243        H246   1.082       .  S
C244        C245   1.386       .  A
C244        C654   1.474       .  S
C245        H247   1.082       .  S
Cu248       N251   2.074       .  S
Cu249       N259   2.079       .  S
Cu250       N252   2.080       .  S
Cu250       N258   2.080       .  S
N251        N252   1.323       .  A
N251        C255   1.346       .  A
N252        C253   1.347       .  A
C253        C254   1.382       .  A
C253        H256   1.082       .  S
C254        C255   1.380       .  A
C254        C639   1.441       .  S
C255        H257   1.082       .  S
N258        N259   1.324       .  A
N258        C262   1.346       .  A
N259        C260   1.347       .  A
C260        C261   1.381       .  A
C260        H263   1.082       .  S
C261        C262   1.380       .  A
C261        C642   1.440       .  S
C262        H264   1.082       .  S
N265        N266   1.324       .  A
N265        C269   1.346       .  A
N265       Cu273   2.082       .  S
N266        C267   1.348       .  A
N266       Cu272   2.090       .  S
C267        C268   1.387       .  A
C267        H270   1.082       .  S
C268        C269   1.382       .  A
C268        C682   1.480       .  S
C269        H271   1.082       .  S
Cu272       N275   2.090       .  S
Cu273       N283   2.081       .  S
Cu274       N276   2.072       .  S
Cu274       N282   2.072       .  S
N275        N276   1.323       .  A
N275        C279   1.349       .  A
N276        C277   1.346       .  A
C277        C278   1.379       .  A
C277        H280   1.082       .  S
C278        C279   1.384       .  A
C278        C637   1.443       .  S
C279        H281   1.082       .  S
N282        N283   1.323       .  A
N282        C286   1.345       .  A
N283        C284   1.348       .  A
C284        C285   1.382       .  A
C284        H287   1.082       .  S
C285        C286   1.379       .  A
C285        C641   1.440       .  S
C286        H288   1.082       .  S
N289        N290   1.323       .  A
N289        C293   1.348       .  A
N289       Cu297   2.081       .  S
N290        C291   1.345       .  A
N290       Cu296   2.080       .  S
C291        C292   1.385       .  A
C291        H294   1.082       .  S
C292        C293   1.383       .  A
C292        C623   1.480       .  S
C293        H295   1.082       .  S
Cu296       N299   2.080       .  S
Cu297       N307   2.081       .  S
Cu298       N300   2.075       .  S
Cu298       N306   2.074       .  S
N299        N300   1.322       .  A
N299        C303   1.347       .  A
N300        C301   1.346       .  A
C301        C302   1.382       .  A
C301        H304   1.082       .  S
C302        C303   1.386       .  A
C302        C619   1.478       .  S
C303        H305   1.082       .  S
N306        N307   1.321       .  A
N306        C310   1.343       .  A
N307        C308   1.346       .  A
C308        C309   1.390       .  A
C308        H311   1.081       .  S
C309        C310   1.388       .  A
C309        C628   1.489       .  S
C310        H312   1.081       .  S
N313        N314   1.323       .  A
N313        C317   1.346       .  A
N313       Cu321   2.078       .  S
N314        C315   1.346       .  A
N314       Cu320   2.078       .  S
C315        C316   1.384       .  A
C315        H318   1.082       .  S
C316        C317   1.381       .  A
C316        C612   1.475       .  S
C317        H319   1.082       .  S
Cu320       N323   2.078       .  S
Cu321       N331   2.078       .  S
Cu322       N324   2.072       .  S
Cu322       N330   2.072       .  S
N323        N324   1.322       .  A
N323        C327   1.346       .  A
N324        C325   1.345       .  A
C325        C326   1.384       .  A
C325        H328   1.082       .  S
C326        C327   1.382       .  A
C326        C615   1.475       .  S
C327        H329   1.082       .  S
N330        N331   1.321       .  A
N330        C334   1.344       .  A
N331        C332   1.345       .  A
C332        C333   1.390       .  A
C332        H335   1.081       .  S
C333        C334   1.388       .  A
C333        C631   1.488       .  S
C334        H336   1.081       .  S
N337        N338   1.323       .  A
N337        C341   1.347       .  A
N337       Cu345   2.079       .  S
N338        C339   1.347       .  A
N338       Cu344   2.087       .  S
C339        C340   1.384       .  A
C339        H342   1.082       .  S
C340        C341   1.385       .  A
C340        C605   1.480       .  S
C341        H343   1.082       .  S
Cu344       N347   2.087       .  S
Cu345       N355   2.079       .  S
Cu346       N348   2.076       .  S
Cu346       N354   2.076       .  S
N347        N348   1.324       .  A
N347        C351   1.348       .  A
N348        C349   1.346       .  A
C349        C350   1.380       .  A
C349        H352   1.082       .  S
C350        C351   1.382       .  A
C350        C705   1.443       .  S
C351        H353   1.082       .  S
N354        N355   1.323       .  A
N354        C358   1.346       .  A
N355        C356   1.347       .  A
C356        C357   1.381       .  A
C356        H359   1.082       .  S
C357        C358   1.380       .  A
C357        C609   1.440       .  S
C358        H360   1.082       .  S
N361        N362   1.323       .  A
N361        C365   1.345       .  A
N361       Cu369   2.078       .  S
N362        C363   1.348       .  A
N362       Cu368   2.085       .  S
C363        C364   1.386       .  A
C363        H366   1.082       .  S
C364        C365   1.381       .  A
C364        C620   1.477       .  S
C365        H367   1.082       .  S
Cu368       N371   2.085       .  S
Cu369       N379   2.078       .  S
Cu370       N372   2.073       .  S
Cu370       N378   2.073       .  S
N371        N372   1.324       .  A
N371        C375   1.347       .  A
N372        C373   1.345       .  A
C373        C374   1.378       .  A
C373        H376   1.082       .  S
C374        C375   1.381       .  A
C374        C699   1.439       .  S
C375        H377   1.082       .  S
N378        N379   1.323       .  A
N378        C382   1.345       .  A
N379        C380   1.347       .  A
C380        C381   1.381       .  A
C380        H383   1.082       .  S
C381        C382   1.380       .  A
C381        C610   1.440       .  S
C382        H384   1.082       .  S
N385        N386   1.323       .  A
N385        C389   1.346       .  A
N385       Cu393   2.078       .  S
N386        C387   1.347       .  A
N386       Cu392   2.086       .  S
C387        C388   1.387       .  A
C387        H390   1.082       .  S
C388        C389   1.382       .  A
C388        C599   1.480       .  S
C389        H391   1.082       .  S
Cu392       N395   2.086       .  S
Cu393       N403   2.078       .  S
Cu394       N396   2.075       .  S
Cu394       N402   2.075       .  S
N395        N396   1.323       .  A
N395        C399   1.348       .  A
N396        C397   1.346       .  A
C397        C398   1.380       .  A
C397        H400   1.082       .  S
C398        C399   1.383       .  A
C398        C667   1.442       .  S
C399        H401   1.082       .  S
N402        N403   1.323       .  A
N402        C406   1.346       .  A
N403        C404   1.347       .  A
C404        C405   1.381       .  A
C404        H407   1.082       .  S
C405        C406   1.380       .  A
C405        C603   1.440       .  S
C406        H408   1.082       .  S
N409        N410   1.324       .  A
N409        C413   1.346       .  A
N409       Cu417   2.076       .  S
N410        C411   1.346       .  A
N410       Cu416   2.079       .  S
C411        C412   1.381       .  A
C411        H414   1.082       .  S
C412        C413   1.380       .  A
C412        C670   1.440       .  S
C413        H415   1.082       .  S
Cu416       N419   2.079       .  S
Cu417       N427   2.077       .  S
Cu418       N420   2.074       .  S
Cu418       N426   2.075       .  S
N419        N420   1.323       .  A
N419        C423   1.346       .  A
N420        C421   1.345       .  A
C421        C422   1.380       .  A
C421        H424   1.082       .  S
C422        C423   1.385       .  A
C422        C616   1.474       .  S
C423        H425   1.082       .  S
N426        N427   1.323       .  A
N426        C430   1.346       .  A
N427        C428   1.346       .  A
C428        C429   1.380       .  A
C428        H431   1.082       .  S
C429        C430   1.380       .  A
C429        C604   1.440       .  S
C430        H432   1.082       .  S
N433        N434   1.323       .  A
N433        C437   1.345       .  A
N433       Cu441   2.074       .  S
N434        C435   1.347       .  A
N434       Cu440   2.083       .  S
C435        C436   1.386       .  A
C435        H438   1.082       .  S
C436        C437   1.381       .  A
C436        C611   1.476       .  S
C437        H439   1.082       .  S
Cu440       N443   2.084       .  S
Cu441       N451   2.074       .  S
Cu442       N444   2.082       .  S
Cu442       N450   2.082       .  S
N443        N444   1.324       .  A
N443        C447   1.347       .  A
N444        C445   1.346       .  A
C445        C446   1.380       .  A
C445        H448   1.082       .  S
C446        C447   1.381       .  A
C446        C640   1.441       .  S
C447        H449   1.082       .  S
N450        N451   1.323       .  A
N450        C454   1.348       .  A
N451        C452   1.345       .  A
C452        C453   1.379       .  A
C452        H455   1.082       .  S
C453        C454   1.382       .  A
C453        C597   1.441       .  S
C454        H456   1.082       .  S
N457        N458   1.324       .  A
N457        C461   1.343       .  A
N457       Cu465   2.073       .  S
N458        C459   1.351       .  A
N458       Cu464   2.094       .  S
C459        C460   1.387       .  A
C459        H462   1.082       .  S
C460        C461   1.379       .  A
C460        C593   1.476       .  S
C461        H463   1.082       .  S
Cu464       N467   2.094       .  S
Cu465       N475   2.073       .  S
Cu466       N468   2.078       .  S
Cu466       N474   2.077       .  S
N467        N468   1.325       .  A
N467        C471   1.349       .  A
N468        C469   1.346       .  A
C469        C470   1.379       .  A
C469        H472   1.082       .  S
C470        C471   1.383       .  A
C470        C638   1.443       .  S
C471        H473   1.082       .  S
N474        N475   1.322       .  A
N474        C478   1.347       .  A
N475        C476   1.346       .  A
C476        C477   1.381       .  A
C476        H479   1.082       .  S
C477        C478   1.382       .  A
C477        C598   1.441       .  S
C478        H480   1.082       .  S
N481        N482   1.322       .  A
N481        C485   1.347       .  A
N481       Cu489   2.083       .  S
N482        C483   1.347       .  A
N482       Cu488   2.079       .  S
C483        C484   1.386       .  A
C483        H486   1.082       .  S
C484        C485   1.384       .  A
C484        C606   1.480       .  S
C485        H487   1.082       .  S
Cu488       N491   2.079   1_655  S
Cu489       N499   2.083       .  S
Cu490       N492   2.087       .  S
Cu490       N498   2.088       .  S
N491        N492   1.324       .  A
N491        C495   1.346       .  A
N492        C493   1.347       .  A
C493        C494   1.383       .  A
C493        H496   1.082       .  S
C494        C495   1.383       .  A
C494        C579   1.477       .  S
C495        H497   1.082       .  S
N498        N499   1.322   1_455  A
N498        C502   1.348       .  A
N499        C500   1.345       .  A
C500        C501   1.389       .  A
C500        H503   1.081       .  S
C501        C502   1.390   1_655  A
C501        C584   1.492       .  S
C502        H504   1.081       .  S
N505        N506   1.322       .  A
N505        C509   1.348       .  A
N505       Cu513   2.086       .  S
N506        C507   1.345       .  A
N506       Cu512   2.072       .  S
C507        C508   1.384       .  A
C507        H510   1.082       .  S
C508        C509   1.385       .  A
C508        C594   1.480       .  S
C509        H511   1.082       .  S
Cu512       N515   2.072   1_655  S
Cu513       N523   2.087       .  S
Cu514       N516   2.088       .  S
Cu514       N522   2.089       .  S
N515        N516   1.323       .  A
N515        C519   1.344       .  A
N516        C517   1.349       .  A
C517        C518   1.388       .  A
C517        H520   1.082       .  S
C518        C519   1.380       .  A
C518        C600   1.478       .  S
C519        H521   1.082       .  S
N522        N523   1.323   1_455  A
N522        C526   1.347       .  A
N523        C524   1.346       .  A
C524        C525   1.389       .  A
C524        H527   1.081       .  S
C525        C526   1.389   1_655  A
C525        C587   1.492       .  S
C526        H528   1.081       .  S
N529        N530   1.324       .  A
N529        C533   1.342       .  A
N529       Cu537   2.072       .  S
N530        C531   1.350       .  A
N530       Cu536   2.094       .  S
C531        C532   1.388       .  A
C531        H534   1.082       .  S
C532        C533   1.378       .  A
C532        C624   1.476       .  S
C533        H535   1.082       .  S
Cu536       N539   2.094       .  S
Cu537       N547   2.072       .  S
Cu538       N540   2.067       .  S
Cu538       N546   2.067       .  S
N539        N540   1.324       .  A
N539        C543   1.349       .  A
N540        C541   1.343       .  A
C541        C542   1.376       .  A
C541        H544   1.082       .  S
C542        C543   1.384       .  A
C542        C646   1.439       .  S
C543        H545   1.082       .  S
N546        N547   1.321       .  A
N546        C550   1.345       .  A
N547        C548   1.346       .  A
C548        C549   1.381       .  A
C548        H551   1.082       .  S
C549        C550   1.380       .  A
C549        C577   1.439       .  S
C550        H552   1.082       .  S
N553        N554   1.323       .  A
N553        C557   1.346       .  A
N553       Cu561   2.079       .  S
N554        C555   1.348       .  A
N554       Cu560   2.081       .  S
C555        C556   1.384       .  A
C555        H558   1.082       .  S
C556        C557   1.381       .  A
C556        C580   1.475       .  S
C557        H559   1.082       .  S
Cu560       N563   2.081       .  S
Cu561       N571   2.078       .  S
Cu562       N564   2.076       .  S
Cu562       N570   2.075       .  S
N563        N564   1.324       .  A
N563        C567   1.347       .  A
N564        C565   1.346       .  A
C565        C566   1.379       .  A
C565        H568   1.082       .  S
C566        C567   1.380       .  A
C566        C643   1.439       .  S
C567        H569   1.082       .  S
N570        N571   1.323       .  A
N570        C574   1.347       .  A
N571        C572   1.346       .  A
C572        C573   1.380       .  A
C572        H575   1.082       .  S
C573        C574   1.381       .  A
C573        C578   1.439       .  S
C574        H576   1.082       .  S
C577        C578   1.207       .  T
C579        C580   1.342       .  D
C579        H581   1.087       .  S
C580        H582   1.087       .  S
C583        C584   1.407   1_455  A
C583        C588   1.402       .  A
C583        H589   1.082       .  S
C584        C585   1.407       .  A
C585        C586   1.400       .  A
C585        H590   1.081       .  S
C586        C587   1.406       .  A
C586        H591   1.082       .  S
C587        C588   1.407   1_655  A
C588        H592   1.082       .  S
C593        C594   1.343       .  D
C593        H595   1.086       .  S
C594        H596   1.086       .  S
C597        C598   1.208       .  T
C599        C600   1.343       .  D
C599        H601   1.086       .  S
C600        H602   1.086       .  S
C603        C604   1.207       .  T
C605        C606   1.345       .  D
C605        H607   1.086       .  S
C606        H608   1.086       .  S
C609        C610   1.207       .  T
C611        C612   1.342       .  D
C611        H613   1.087       .  S
C612        H614   1.086       .  S
C615        C616   1.342       .  D
C615        H617   1.086       .  S
C616        H618   1.086       .  S
C619        C620   1.342       .  D
C619        H621   1.086       .  S
C620        H622   1.086       .  S
C623        C624   1.342       .  D
C623        H625   1.086       .  S
C624        H626   1.086       .  S
C627        C628   1.406   1_554  A
C627        C632   1.398       .  A
C627        H633   1.081       .  S
C628        C629   1.406       .  A
C629        C630   1.399   1_556  A
C629        H634   1.081       .  S
C630        C631   1.407       .  A
C630        H635   1.081       .  S
C631        C632   1.405       .  A
C632        H636   1.081       .  S
C637        C638   1.210       .  T
C639        C640   1.208   1_556  T
C641        C642   1.208       .  T
C643        C644   1.207       .  T
C645        C646   1.207       .  T
C647        C648   1.205       .  T
C649        C650   1.342       .  D
C649        H651   1.086       .  S
C650        H652   1.086       .  S
C653        C654   1.342       .  D
C653        H655   1.086       .  S
C654        H656   1.086       .  S
C657        C658   1.406   1_545  A
C657        C662   1.397       .  A
C657        H663   1.082       .  S
C658        C659   1.405   1_665  A
C659        C660   1.399       .  A
C659        H664   1.082   1_545  S
C660        C661   1.406   1_455  A
C660        H665   1.082   1_556  S
C661        C662   1.404       .  A
C662        H666   1.082       .  S
C667        C668   1.209       .  T
C669        C670   1.207       .  T
C671        C672   1.341       .  D
C671        H673   1.086       .  S
C672        H674   1.086       .  S
C675        C676   1.207       .  T
C677        C678   1.343       .  D
C677        H679   1.086       .  S
C678        H680   1.086       .  S
C681        C682   1.343       .  D
C681        H683   1.086       .  S
C682        H684   1.086       .  S
C685        C686   1.341       .  D
C685        H687   1.086       .  S
C686        H688   1.087       .  S
C689        C690   1.406   1_545  A
C689        C694   1.400       .  A
C689        H695   1.081   1_545  S
C690        C691   1.407       .  A
C691        C692   1.400   1_565  A
C691        H696   1.081       .  S
C692        C693   1.406       .  A
C692        H697   1.081       .  S
C693        C694   1.407       .  A
C694        H698   1.081       .  S
C699        C700   1.207       .  T
C701        C702   1.342       .  D
C701        H703   1.086       .  S
C702        H704   1.086       .  S
C705        C706   1.209       .  T
C707        C708   1.342       .  D
C707        H709   1.086       .  S
C708        H710   1.086       .  S
C711        C712   1.207       .  T
