geometry optimzed in LAMMPS
_audit_creation_date              2020-11-30 
_audit_creation_method            'lammps2cif' 
_symmetry_space_group_name_H-M    'P1' 
_symmetry_Int_Tables_number       1 
_symmetry_cell_setting            triclinic 
loop_ 
_symmetry_equiv_pos_as_xyz 
  x,y,z 
_cell_length_a                    32.02671595 
_cell_length_b                    34.60199875681873 
_cell_length_c                    54.512401887106996 
_cell_angle_alpha                 90.02102016901594 
_cell_angle_beta                  90.04307650171336 
_cell_angle_gamma                 89.89374876865581 
loop_ 
_atom_site_label 
_atom_site_type_symbol 
_atom_site_fract_x 
_atom_site_fract_y 
_atom_site_fract_z 
_atom_site_charge 
N1          N  0.70175739  0.81226816  0.14239983    -0.27000
N2          N  0.70702950  0.79271820  0.16301586    -0.34900
C3          C  0.68769486  0.81157350  0.18138015     0.01300
C4          C  0.66977963  0.84470139  0.17184958     0.07300
C5          C  0.67950456  0.84436248  0.14715362    -0.05800
H6          H  0.68841022  0.80280214  0.20044195     0.08000
H7          H  0.67145821  0.86608085  0.13369755     0.09200
Cu8        Cu  0.74405768  0.74375159  0.16565853     0.44200
Cu9        Cu  0.72480630  0.79479272  0.10863779     0.42000
Cu10       Cu  0.78609697  0.70732387  0.10836254     0.43900
N11         N  0.78661388  0.69872010  0.16343323    -0.34400
N12         N  0.80197142  0.68539161  0.14258324    -0.28700
C13         C  0.82898932  0.65663786  0.14752477    -0.04800
C14         C  0.83107899  0.65173284  0.17274674     0.07400
C15         C  0.80352619  0.67888107  0.18217218     0.01200
H16         H  0.84515759  0.64007888  0.13358391     0.08900
H17         H  0.79650070  0.68411392  0.20127223     0.08000
N18         N  0.76743037  0.73587647  0.07668146    -0.35900
N19         N  0.74563784  0.76833135  0.07677314    -0.28000
C20         C  0.73745780  0.77874400  0.05348376    -0.03300
C21         C  0.75500847  0.75156143  0.03787045     0.05300
C22         C  0.77361437  0.72473535  0.05332941     0.03400
H23         H  0.71832045  0.80333202  0.04843854     0.08500
H24         H  0.78991724  0.69867667  0.04802386     0.07400
N25         N  0.79949190  0.67748762  0.82784825    -0.27000
N26         N  0.79579604  0.69839354  0.80766997    -0.34900
C27         C  0.81153117  0.67856271  0.78862179     0.01300
C28         C  0.82585653  0.64326488  0.79705235     0.07300
C29         C  0.81804287  0.64372635  0.82209861    -0.05800
H30         H  0.81310420  0.68958413  0.77006070     0.08000
H31         H  0.82507665  0.62111288  0.83514645     0.09200
Cu32       Cu  0.76851626  0.75240133  0.80618309     0.44200
Cu33       Cu  0.77851083  0.69597980  0.86209933     0.42000
Cu34       Cu  0.71769099  0.78488529  0.86104109     0.43900
N35         N  0.73139420  0.80112765  0.80740361    -0.34400
N36         N  0.71117760  0.81217004  0.82733172    -0.28700
C37         C  0.68602668  0.84198150  0.82159162    -0.04800
C38         C  0.69106048  0.85030975  0.79691122     0.07400
C39         C  0.72005847  0.82379977  0.78850920     0.01200
H40         H  0.66500889  0.85600899  0.83428877     0.08900
H41         H  0.73035848  0.81975256  0.76975409     0.08000
N42         N  0.73208781  0.75467873  0.89286138    -0.35900
N43         N  0.75418664  0.72237176  0.89337922    -0.28000
C44         C  0.75986944  0.71176340  0.91690947    -0.03300
C45         C  0.74042022  0.73865040  0.93198269     0.05300
C46         C  0.72328746  0.76548419  0.91598916     0.03400
H47         H  0.77873307  0.68733848  0.92258517     0.08500
H48         H  0.70659119  0.79156335  0.92079911     0.07400
N49         N  0.79837642  0.31869840  0.32521814    -0.27000
N50         N  0.77894553  0.30992112  0.30452370    -0.34900
C51         C  0.79240160  0.33371555  0.28668396     0.01300
C52         C  0.82191305  0.35834954  0.29658534     0.07300
C53         C  0.82512204  0.34787985  0.32098718    -0.05800
H54         H  0.78259527  0.33218327  0.26768783     0.08000
H55         H  0.84543841  0.36050219  0.33464795     0.09200
Cu56       Cu  0.73807130  0.26362192  0.30082532     0.44200
Cu57       Cu  0.78772648  0.29113285  0.35847716     0.42000
Cu58       Cu  0.72358420  0.20647217  0.35602388     0.43900
N59         N  0.70538938  0.21174460  0.30173198    -0.34400
N60         N  0.70193414  0.19033720  0.32172957    -0.28700
C61         C  0.68214102  0.15731278  0.31608874    -0.04800
C62         C  0.67209835  0.15816848  0.29147115     0.07400
C63         C  0.68722992  0.19303820  0.28286111     0.01200
H64         H  0.67560366  0.13433924  0.32895788     0.08900
H65         H  0.68640421  0.20341811  0.26413526     0.08000
N66         N  0.74474543  0.23019397  0.38860325    -0.35900
N67         N  0.76853518  0.26128906  0.38953292    -0.28000
C68         C  0.77626333  0.26994294  0.41315801    -0.03300
C69         C  0.75605879  0.24316390  0.42790047     0.05300
C70         C  0.73662355  0.21824622  0.41157810     0.03400
H71         H  0.79470646  0.29430115  0.41915171     0.08500
H72         H  0.71836073  0.19284947  0.41592737     0.07400
N73         N  0.70490727  0.18084992  0.63963186    -0.27000
N74         N  0.71522160  0.19840986  0.66032490    -0.34900
C75         C  0.69835143  0.17919884  0.67932358     0.01300
C76         C  0.67669400  0.14790032  0.67017354     0.07300
C77         C  0.68167654  0.14957453  0.64498918    -0.05800
H78         H  0.70261241  0.18679742  0.69842254     0.08000
H79         H  0.66955923  0.12944605  0.63159362     0.09200
Cu80       Cu  0.75349203  0.24649334  0.66210468     0.44200
Cu81       Cu  0.72322389  0.20026953  0.60511086     0.42000
Cu82       Cu  0.78387614  0.28891929  0.60435542     0.43900
N83         N  0.79001201  0.29560413  0.65933767    -0.34400
N84         N  0.79972068  0.31204525  0.63822088    -0.28700
C85         C  0.82191512  0.34425826  0.64267617    -0.04800
C86         C  0.82695916  0.34787626  0.66778632     0.07400
C87         C  0.80628301  0.31655804  0.67778613     0.01200
H88         H  0.83400522  0.36330561  0.62867813     0.08900
H89         H  0.80246569  0.30992800  0.69704111     0.08000
N90         N  0.76800287  0.25813697  0.57303675    -0.35900
N91         N  0.74574334  0.22599809  0.57321940    -0.28000
C92         C  0.74051076  0.21382608  0.54996071    -0.03300
C93         C  0.76085641  0.23926548  0.53436398     0.05300
C94         C  0.77770322  0.26709268  0.54972733     0.03400
H95         H  0.72306720  0.18840167  0.54479147     0.08500
H96         H  0.79467770  0.29279379  0.54439279     0.07400
C97         C  0.42171322  0.97205564  0.72845051     0.80500
N98         N  0.46395625  0.97022960  0.72984296    -0.77800
C99         C  0.48591382  0.00029799  0.73919690     0.82900
N100        N  0.46540750  0.03133459  0.74861622    -0.77800
C101        C  0.42292585  0.03220910  0.74885553     0.83000
N102        N  0.40134042  0.00304216  0.73796347    -0.79500
C103        C  0.59500589  0.02614666  0.72471216     0.80500
N104        N  0.61546282  0.99422953  0.73299991    -0.77800
C105        C  0.59438749  0.96487161  0.74405534     0.82900
N106        N  0.55219941  0.96724504  0.74586528    -0.77800
C107        C  0.53154572  0.99935951  0.73838165     0.83000
N108        N  0.55304772  0.02900844  0.72817427    -0.79500
C109        C  0.09518503  0.53360234  0.24513748     0.80500
N110        N  0.05275958  0.53312153  0.24572781    -0.77800
C111        C  0.03116189  0.50321689  0.23597940     0.82900
N112        N  0.05199898  0.47379252  0.22505879    -0.77800
C113        C  0.09425989  0.47509546  0.22282689     0.83000
N114        N  0.11586624  0.50491511  0.23306889    -0.79500
C115        C  0.92242659  0.53614017  0.22798245     0.80500
N116        N  0.96477174  0.53491582  0.22750787    -0.77800
C117        C  0.98549862  0.50372876  0.23642071     0.82900
N118        N  0.96379819  0.47364606  0.24607606    -0.77800
C119        C  0.92139481  0.47512115  0.24756106     0.83000
N120        N  0.90109495  0.50642140  0.23824772    -0.79500
N121        N  0.20923749  0.68743101  0.64624634    -0.27000
N122        N  0.22534344  0.69876837  0.66737094    -0.34900
C123        C  0.21110807  0.67557993  0.68532396     0.01300
C124        C  0.18486195  0.64817594  0.67497238     0.07300
C125        C  0.18444272  0.65678969  0.65015384    -0.05800
H126        H  0.21834295  0.67936736  0.70457315     0.08000
H127        H  0.16715503  0.64204079  0.63593420     0.09200
Cu128      Cu  0.26453015  0.74627385  0.67063814     0.44200
Cu129      Cu  0.21995864  0.71474594  0.61306745     0.42000
Cu130      Cu  0.28540798  0.79868459  0.61360122     0.43900
N131        N  0.30052399  0.79604973  0.66846641    -0.34400
N132        N  0.30718393  0.81534061  0.64788817    -0.28700
C133        C  0.32925327  0.84734013  0.65301335    -0.04800
C134        C  0.33734216  0.84807778  0.67793756     0.07400
C135        C  0.31864052  0.81512201  0.68717404     0.01200
H136        H  0.33841212  0.86869908  0.63959873     0.08900
H137        H  0.31684558  0.80639353  0.70621350     0.08000
N138        N  0.25891223  0.77656136  0.58180995    -0.35900
N139        N  0.23429838  0.74601475  0.58183456    -0.28000
C140        C  0.22217051  0.73848820  0.55874533    -0.03300
C141        C  0.24002884  0.76554579  0.54317033     0.05300
C142        C  0.26339312  0.78911499  0.55860177     0.03400
H143        H  0.20211133  0.71465145  0.55372571     0.08500
H144        H  0.28351178  0.81286526  0.55344182     0.07400
N145        N  0.19819520  0.69255166  0.33201097    -0.27000
N146        N  0.21523905  0.70462970  0.31133603    -0.34900
C147        C  0.20305950  0.68124477  0.29297201     0.01300
C148        C  0.17689251  0.65307042  0.30248367     0.07300
C149        C  0.17481310  0.66115770  0.32737672    -0.05800
H150        H  0.21239127  0.68468124  0.27405407     0.08000
H151        H  0.15845419  0.64499065  0.34136516     0.09200
Cu152      Cu  0.25486583  0.75195905  0.30919569     0.44200
Cu153      Cu  0.20849432  0.71858601  0.36571061     0.42000
Cu154      Cu  0.28248260  0.79794223  0.36667490     0.43900
N155        N  0.29380569  0.79973262  0.31181072    -0.34400
N156        N  0.30443504  0.81621991  0.33277922    -0.28700
C157        C  0.32900777  0.84684077  0.32806566    -0.04800
C158        C  0.33404352  0.84988137  0.30289318     0.07400
C159        C  0.31109572  0.81957310  0.29321479     0.01200
H160        H  0.34072718  0.86639782  0.34195432     0.08900
H161        H  0.30682627  0.81273131  0.27403876     0.08000
N162        N  0.25469398  0.77510496  0.39785765    -0.35900
N163        N  0.22724042  0.74665914  0.39743499    -0.28000
C164        C  0.21594906  0.73818892  0.42055270    -0.03300
C165        C  0.23777640  0.76206945  0.43646926     0.05300
C166        C  0.26171143  0.78536121  0.42129224     0.03400
H167        H  0.19343185  0.71610856  0.42523364     0.08500
H168        H  0.28352398  0.80747841  0.42686676     0.07400
C169        C  0.08713422  0.46657347  0.74143025     0.80500
N170        N  0.10845400  0.49657972  0.73138549    -0.77800
C171        C  0.08783669  0.52640889  0.72051149     0.82900
N172        N  0.04542553  0.52674952  0.72055998    -0.77800
C173        C  0.02387261  0.49670762  0.73024183     0.83000
N174        N  0.04471911  0.46654478  0.74037279    -0.79500
C175        C  0.91511147  0.52734434  0.74141193     0.80500
N176        N  0.95749648  0.52623200  0.74181462    -0.77800
C177        C  0.97828134  0.49727815  0.73028410     0.82900
N178        N  0.95664000  0.46902795  0.71865207    -0.77800
C179        C  0.91437205  0.47113164  0.71703942     0.83000
N180        N  0.89368802  0.50051548  0.72826456    -0.79500
N181        N  0.29319907  0.18002036  0.14360783    -0.27000
N182        N  0.28082358  0.19552416  0.16454425    -0.34900
C183        C  0.29691720  0.17512451  0.18328816     0.01300
C184        C  0.32053531  0.14515610  0.17375476     0.07300
C185        C  0.31767591  0.14936063  0.14851564    -0.05800
H186        H  0.29240485  0.18229242  0.20244701     0.08000
H187        H  0.33200995  0.13123392  0.13472046     0.09200
Cu188      Cu  0.24327823  0.24402924  0.16682881     0.44200
Cu189      Cu  0.27559142  0.20082855  0.10933811     0.42000
Cu190      Cu  0.20921657  0.28567033  0.10930333     0.43900
N191        N  0.20787957  0.29386842  0.16436020    -0.34400
N192        N  0.19663721  0.30987729  0.14333970    -0.28700
C193        C  0.17595304  0.34292083  0.14803662    -0.04800
C194        C  0.17359483  0.34745076  0.17319392     0.07400
C195        C  0.19410233  0.31590641  0.18299359     0.01200
H196        H  0.16326994  0.36200576  0.13420557     0.08900
H197        H  0.19947550  0.30984330  0.20222293     0.08000
N198        N  0.22590986  0.25589241  0.07774282    -0.35900
N199        N  0.25102376  0.22552481  0.07767896    -0.28000
C200        C  0.25785749  0.21460969  0.05432717    -0.03300
C201        C  0.23552295  0.23894417  0.03895219     0.05300
C202        C  0.21573726  0.26481704  0.05447288     0.03400
H203        H  0.27816284  0.19113512  0.04891619     0.08500
H204        H  0.19702020  0.28955917  0.04922889     0.07400
N205        N  0.30211583  0.18750216  0.82892566    -0.27000
N206        N  0.28853205  0.20165727  0.80786407    -0.34900
C207        C  0.30344063  0.17991634  0.78937559     0.01300
C208        C  0.32771984  0.15065895  0.79925386     0.07300
C209        C  0.32638822  0.15654526  0.82438482    -0.05800
H210        H  0.29780499  0.18565920  0.77013850     0.08000
H211        H  0.34167639  0.13943285  0.83834009     0.09200
Cu212      Cu  0.25099020  0.25027766  0.80530383     0.44200
Cu213      Cu  0.28599463  0.21052776  0.86281493     0.42000
Cu214      Cu  0.21094132  0.28952020  0.86240584     0.43900
N215        N  0.21177588  0.29782032  0.80729073    -0.34400
N216        N  0.19605414  0.31151878  0.82797091    -0.28700
C217        C  0.17107243  0.34173450  0.82273282    -0.04800
C218        C  0.17127365  0.34736966  0.79757068     0.07400
C219        C  0.19765424  0.31916964  0.78841837     0.01200
H220        H  0.15482964  0.35890912  0.83633148     0.08900
H221        H  0.20568171  0.31427497  0.76941627     0.08000
N222        N  0.23411116  0.26418751  0.89424796    -0.35900
N223        N  0.26216242  0.23609513  0.89432605    -0.28000
C224        C  0.27080990  0.22638409  0.91766727    -0.03300
C225        C  0.24713891  0.24944446  0.93311856     0.05300
C226        C  0.22399822  0.27288031  0.91757914     0.03400
H227        H  0.29183206  0.20327790  0.92292558     0.08500
H228        H  0.20147804  0.29465134  0.92283329     0.07400
C229        C  0.41643481  0.02706746  0.22382971     0.80500
N230        N  0.39599784  0.99771125  0.23525835    -0.77800
C231        C  0.41766178  0.96892764  0.24654589     0.82900
N232        N  0.46011157  0.96956355  0.24614103    -0.77800
C233        C  0.48066793  0.99926629  0.23532328     0.83000
N234        N  0.45879707  0.02812334  0.22444630    -0.79500
C235        C  0.59000241  0.03170678  0.24206096     0.80500
N236        N  0.61081111  0.00140216  0.23191192    -0.77800
C237        C  0.58961832  0.97022295  0.22330737     0.82900
N238        N  0.54741987  0.96894944  0.22560341    -0.77800
C239        C  0.52629120  0.99970008  0.23475478     0.83000
N240        N  0.54754321  0.03130740  0.24254196    -0.79500
C241        C  0.38367091  0.10385549  0.17775236    -0.12000
C242        C  0.34500705  0.11564272  0.18725044     0.05000
C243        C  0.33049478  0.09870014  0.20922189    -0.07300
C244        C  0.35410957  0.06981804  0.22072674    -0.08000
C245        C  0.39264768  0.05786214  0.21112455    -0.02600
C246        C  0.40768086  0.07558833  0.18952643     0.04200
N247        N  0.44652922  0.06426617  0.17880604     0.66700
H248        H  0.39555728  0.11683852  0.16099143     0.15600
H249        H  0.34218254  0.05670179  0.23743574     0.15300
N250        N  0.29121551  0.10939055  0.21963127     0.74400
O251        O  0.44752707  0.03660097  0.16373243    -0.39000
O252        O  0.47815206  0.08562937  0.18126354    -0.39000
O253        O  0.25839798  0.09269196  0.21248478    -0.39700
O254        O  0.29036582  0.12942129  0.23897820    -0.39700
C255        C  0.20591739  0.25229548  0.97187270    -0.12000
C256        C  0.24470650  0.24748994  0.96027179     0.05000
C257        C  0.28023606  0.23944062  0.97477744    -0.07300
C258        C  0.27619582  0.23548336  0.00022677    -0.08000
C259        C  0.23750251  0.24049190  0.01182383    -0.02600
C260        C  0.20200779  0.24881142  0.99738797     0.04200
N261        N  0.16149170  0.25169650  0.00820733     0.66700
H262        H  0.17808074  0.25780773  0.96097290     0.15600
H263        H  0.30403206  0.23008520  0.01115660     0.15300
N264        N  0.32102966  0.23800463  0.96418967     0.74400
O265        O  0.14358380  0.28414953  0.00944975    -0.39000
O266        O  0.14075123  0.22136051  0.01216151    -0.39000
O267        O  0.33838703  0.26894023  0.95744563    -0.39700
O268        O  0.34226919  0.20731893  0.96549069    -0.39700
C269        C  0.08798859  0.41634571  0.77413292    -0.12000
C270        C  0.10933737  0.43584499  0.75533733     0.05000
C271        C  0.15145455  0.42590009  0.75064934    -0.07300
C272        C  0.17088021  0.39689506  0.76451631    -0.08000
C273        C  0.14946898  0.37770427  0.78333865    -0.02600
C274        C  0.10758611  0.38768897  0.78812577     0.04200
N275        N  0.08391610  0.36774611  0.80634754     0.66700
H276        H  0.05561702  0.42344040  0.77815948     0.15600
H277        H  0.20323572  0.38949017  0.76062771     0.15300
N278        N  0.17464507  0.44419990  0.73153002     0.74400
O279        O  0.07421243  0.38481990  0.82599668    -0.39000
O280        O  0.06639751  0.33623434  0.80094717    -0.39000
O281        O  0.20137507  0.46962237  0.73683878    -0.39700
O282        O  0.17336375  0.43065295  0.71005060    -0.39700
C283        C  0.33731399  0.89477493  0.26730499    -0.12000
C284        C  0.35567704  0.88068691  0.28892342     0.05000
C285        C  0.39423873  0.89626172  0.29661897    -0.07300
C286        C  0.41393794  0.92455940  0.28239536    -0.08000
C287        C  0.39560298  0.93865317  0.26076182    -0.02600
C288        C  0.35651515  0.92376511  0.25340324     0.04200
N289        N  0.33644335  0.93694920  0.23153102     0.66700
H290        H  0.30739245  0.88341924  0.26120236     0.15600
H291        H  0.44383851  0.93591187  0.28853134     0.15300
N292        N  0.41451828  0.88284515  0.31836429     0.74400
O293        O  0.34374269  0.92013814  0.21144049    -0.39000
O294        O  0.30621328  0.96027298  0.23303465    -0.39000
O295        O  0.44018169  0.85522578  0.31696325    -0.39700
O296        O  0.41391268  0.90359505  0.33740535    -0.39700
C297        C  0.12099810  0.60755774  0.67768677    -0.12000
C298        C  0.16011324  0.61766431  0.68739580     0.05000
C299        C  0.17466181  0.59815137  0.70851277    -0.07300
C300        C  0.15049657  0.56882713  0.71904504    -0.08000
C301        C  0.11162740  0.55845659  0.70914900    -0.02600
C302        C  0.09671323  0.57848018  0.68832437     0.04200
N303        N  0.05784433  0.56856748  0.67709248     0.66700
H304        H  0.10893525  0.62241868  0.66159138     0.15600
H305        H  0.16250030  0.55380868  0.73510528     0.15300
N306        N  0.21464450  0.60642322  0.71886836     0.74400
O307        O  0.02588342  0.58891940  0.68124312    -0.39000
O308        O  0.05712668  0.54397921  0.65999862    -0.39000
O309        O  0.21693505  0.62206081  0.73974494    -0.39700
O310        O  0.24697867  0.59185077  0.70939462    -0.39700
C311        C  0.22841159  0.73142332  0.50345391    -0.12000
C312        C  0.23751480  0.76600699  0.51584979     0.05000
C313        C  0.24549215  0.79953124  0.50175965    -0.07300
C314        C  0.24553331  0.79736353  0.47608336    -0.08000
C315        C  0.23704484  0.76261761  0.46375913    -0.02600
C316        C  0.22818525  0.72931358  0.47782470     0.04200
N317        N  0.22129237  0.69256126  0.46655864     0.66700
H318        H  0.22294535  0.70494142  0.51371197     0.15600
H319        H  0.25134394  0.82362725  0.46565435     0.15300
N320        N  0.25190217  0.83633112  0.51305491     0.74400
O321        O  0.25155344  0.67450430  0.45712299    -0.39000
O322        O  0.18684354  0.67553165  0.46952973    -0.39000
O323        O  0.28567944  0.85423633  0.50955280    -0.39700
O324        O  0.22150965  0.85367638  0.52287336    -0.39700
C325        C  0.10328312  0.40495519  0.21536418    -0.12000
C326        C  0.11619736  0.44292840  0.21048887     0.05000
C327        C  0.14910231  0.44917895  0.19369066    -0.07300
C328        C  0.16759797  0.41755494  0.18182645    -0.08000
C329        C  0.15433571  0.37977516  0.18662050    -0.02600
C330        C  0.12233264  0.37345162  0.20381607     0.04200
N331        N  0.10771414  0.33531359  0.20891862     0.66700
H332        H  0.07812243  0.39965706  0.22832631     0.15600
H333        H  0.19228174  0.42255602  0.16850341     0.15300
N334        N  0.16262529  0.48733627  0.18752489     0.74400
O335        O  0.12069286  0.31772504  0.22771498    -0.39000
O336        O  0.07728485  0.32183239  0.19697203    -0.39000
O337        O  0.20086429  0.49579465  0.18902157    -0.39700
O338        O  0.13814696  0.50980855  0.17627691    -0.39700
C339        C  0.09843329  0.57752080  0.28112563    -0.12000
C340        C  0.11783618  0.56290386  0.25996029     0.05000
C341        C  0.15792160  0.57668288  0.25374308    -0.07300
C342        C  0.17655022  0.60575843  0.26792731    -0.08000
C343        C  0.15652141  0.62116361  0.28868643    -0.02600
C344        C  0.11728652  0.60600683  0.29553774     0.04200
N345        N  0.09528871  0.62001182  0.31653381     0.66700
H346        H  0.06793916  0.56679564  0.28664046     0.15600
H347        H  0.20718356  0.61634995  0.26258528     0.15300
N348        N  0.17975761  0.56225781  0.23282353     0.74400
O349        O  0.07348500  0.65029364  0.31479441    -0.39000
O350        O  0.09095353  0.59835722  0.33498361    -0.39000
O351        O  0.17335243  0.57732225  0.21208298    -0.39700
O352        O  0.21106061  0.54058069  0.23588339    -0.39700
C353        C  0.40751450  0.90223530  0.72241156    -0.12000
C354        C  0.39842676  0.94069997  0.71632286     0.05000
C355        C  0.36845729  0.94849707  0.69802542    -0.07300
C356        C  0.34909080  0.91789785  0.68571852    -0.08000
C357        C  0.35826902  0.87937110  0.69169723    -0.02600
C358        C  0.38738856  0.87159881  0.71051101     0.04200
N359        N  0.39835065  0.83284425  0.71689503     0.66700
H360        H  0.43067336  0.89591064  0.73646307     0.15600
H361        H  0.32650050  0.92435293  0.67138040     0.15300
N362        N  0.35885076  0.98726828  0.69095894     0.74400
O363        O  0.42504922  0.81488230  0.70423896    -0.39000
O364        O  0.38716624  0.81928545  0.73734250    -0.39000
O365        O  0.37762663  0.00229132  0.67300564    -0.39700
O366        O  0.32691739  0.00368984  0.69965667    -0.39700
C367        C  0.35950828  0.07335776  0.75329714    -0.12000
C368        C  0.39984091  0.06376576  0.76143531     0.05000
C369        C  0.41628987  0.08338140  0.78205279    -0.07300
C370        C  0.39222076  0.11141481  0.79407008    -0.08000
C371        C  0.35189491  0.12076392  0.78595265    -0.02600
C372        C  0.33554989  0.10147801  0.76526862     0.04200
N373        N  0.29382397  0.10843829  0.75706219     0.66700
H374        H  0.34606490  0.05850715  0.73757621     0.15600
H375        H  0.40529243  0.12606564  0.80997290     0.15300
N376        N  0.45655029  0.07406437  0.79171191     0.74400
O377        O  0.28773105  0.12561355  0.73695549    -0.39000
O378        O  0.26391577  0.09107352  0.76728684    -0.39000
O379        O  0.48684553  0.09654520  0.78792522    -0.39700
O380        O  0.46013507  0.04736718  0.80733876    -0.39700
C381        C  0.84171093  0.41768823  0.67393561    -0.12000
C382        C  0.84883708  0.37920924  0.68093529     0.05000
C383        C  0.87696570  0.37135077  0.70024057    -0.07300
C384        C  0.89813373  0.40175599  0.71168831    -0.08000
C385        C  0.89106526  0.44013731  0.70464452    -0.02600
C386        C  0.86216153  0.44815963  0.68581981     0.04200
N387        N  0.85463176  0.48692894  0.67793136     0.66700
H388        H  0.81997944  0.42414819  0.65917314     0.15600
H389        H  0.92029554  0.39532940  0.72624207     0.15300
N390        N  0.88577462  0.33259878  0.70767866     0.74400
O391        O  0.87781183  0.50183455  0.66181163    -0.39000
O392        O  0.82134589  0.50387336  0.68412197    -0.39000
O393        O  0.91305742  0.31327600  0.69632555    -0.39700
O394        O  0.87222021  0.32045421  0.72798746    -0.39700
C395        C  0.60091207  0.09492075  0.71145938    -0.12000
C396        C  0.61761094  0.05728590  0.71142317     0.05000
C397        C  0.65479563  0.05022192  0.69806571    -0.07300
C398        C  0.67317317  0.08003107  0.68447397    -0.08000
C399        C  0.65608937  0.11726113  0.68444981    -0.02600
C400        C  0.62009814  0.12487012  0.69841323     0.04200
N401        N  0.60210253  0.16266332  0.69894948     0.66700
H402        H  0.57269448  0.10129116  0.72177711     0.15600
H403        H  0.70135867  0.07412065  0.67399708     0.15300
N404        N  0.67401793  0.01294554  0.69771941     0.74400
O405        O  0.57436227  0.17169387  0.68352623    -0.39000
O406        O  0.60912058  0.18465078  0.71695006    -0.39000
O407        O  0.66462185  0.98921450  0.68103711    -0.39700
O408        O  0.70574628  0.00676113  0.71089672    -0.39700
C409        C  0.67085092  0.09026293  0.27721874    -0.12000
C410        C  0.65222499  0.12688110  0.27737522     0.05000
C411        C  0.61423062  0.13259329  0.26491493    -0.07300
C412        C  0.59484719  0.10139855  0.25317452    -0.08000
C413        C  0.61301888  0.06438778  0.25330731    -0.02600
C414        C  0.65195901  0.05915999  0.26515316     0.04200
N415        N  0.67177207  0.02216380  0.26619074     0.66700
H416        H  0.70025439  0.08566899  0.28680259     0.15600
H417        H  0.56498916  0.10610444  0.24412900     0.15300
N418        N  0.59387233  0.16935635  0.26524960     0.74400
O419        O  0.70291986  0.01543395  0.25268025    -0.39000
O420        O  0.66383502  0.99968978  0.28379497    -0.39000
O421        O  0.59332851  0.18989765  0.24613406    -0.39700
O422        O  0.57133745  0.17860465  0.28330722    -0.39700
C423        C  0.89068648  0.38592651  0.28502789    -0.12000
C424        C  0.84706381  0.38759460  0.28358708     0.05000
C425        C  0.82814972  0.41718858  0.26980857    -0.07300
C426        C  0.85294096  0.44486322  0.25813685    -0.08000
C427        C  0.89686076  0.44369522  0.25956805    -0.02600
C428        C  0.91570457  0.41315014  0.27296719     0.04200
N429        N  0.96002219  0.40916013  0.27459070     0.66700
H430        H  0.90558928  0.36286688  0.29544479     0.15600
H431        H  0.83728167  0.46773135  0.24796229     0.15300
N432        N  0.78373802  0.42068315  0.26857417     0.74400
O433        O  0.97927157  0.42354748  0.29260392    -0.39000
O434        O  0.97866851  0.38582533  0.26055094    -0.39000
O435        O  0.76504638  0.44272929  0.28340301    -0.39700
O436        O  0.76449061  0.40788824  0.25008287    -0.39700
C437        C  0.72549316  0.22535657  0.49460782    -0.12000
C438        C  0.76097132  0.23869353  0.50710681     0.05000
C439        C  0.79501872  0.25276668  0.49329611    -0.07300
C440        C  0.79245394  0.25419322  0.46766543    -0.08000
C441        C  0.75675854  0.24136405  0.45515150    -0.02600
C442        C  0.72291824  0.22675810  0.46896072     0.04200
N443        N  0.68473170  0.21552716  0.45744055     0.72700
H444        H  0.69861998  0.21503794  0.50489966     0.15600
H445        H  0.81931445  0.26461094  0.45740571     0.15300
N446        N  0.83324041  0.26378318  0.50487047     0.74400
O447        O  0.67365396  0.18055061  0.45788002    -0.39000
O448        O  0.65868401  0.24111937  0.45121314    -0.39000
O449        O  0.85861063  0.23796512  0.51166136    -0.39700
O450        O  0.84516803  0.29848610  0.50384065    -0.39700
C451        C  0.88022931  0.59212844  0.79368571    -0.12000
C452        C  0.84740122  0.61276155  0.78272565     0.05000
C453        C  0.83673523  0.60463283  0.75806369    -0.07300
C454        C  0.85918613  0.57669602  0.74495099    -0.08000
C455        C  0.89234304  0.55662280  0.75583830    -0.02600
C456        C  0.90274087  0.56434437  0.78050372     0.04200
N457        N  0.93480076  0.54295358  0.79271792     0.66700
H458        H  0.88887253  0.59787284  0.81263515     0.15600
H459        H  0.85055500  0.57056736  0.72603811     0.15300
N460        N  0.80215408  0.62322039  0.74637695     0.74400
O461        O  0.97011978  0.55813988  0.79612725    -0.39000
O462        O  0.92572352  0.51192358  0.80361798    -0.39000
O463        O  0.80832023  0.64460494  0.72798543    -0.39700
O464        O  0.76545035  0.61288413  0.75157709    -0.39700
C465        C  0.62348560  0.88090191  0.78615344    -0.12000
C466        C  0.66655619  0.87817642  0.78223717     0.05000
C467        C  0.68515821  0.90162091  0.76416518    -0.07300
C468        C  0.66080672  0.92853970  0.75138920    -0.08000
C469        C  0.61778027  0.93252218  0.75587660    -0.02600
C470        C  0.59885500  0.90700068  0.77292878     0.04200
N471        N  0.55482464  0.90706595  0.77715212     0.66700
H472        H  0.60847298  0.86197220  0.79950964     0.15600
H473        H  0.67629170  0.94730450  0.73806726     0.15300
N474        N  0.72905831  0.89997328  0.75960940     0.74400
O475        O  0.53134001  0.88722550  0.76348035    -0.39000
O476        O  0.54049361  0.92103394  0.79681080    -0.39000
O477        O  0.74228475  0.88646147  0.73955427    -0.39700
O478        O  0.75381734  0.91789005  0.77356031    -0.39700
C479        C  0.66383981  0.91412538  0.18223801    -0.12000
C480        C  0.64944081  0.87628244  0.18549954     0.05000
C481        C  0.61622959  0.86929597  0.20181856    -0.07300
C482        C  0.59753775  0.90025276  0.21419431    -0.08000
C483        C  0.61175026  0.93825005  0.21086685    -0.02600
C484        C  0.64563817  0.94502656  0.19487337     0.04200
N485        N  0.66067818  0.98321688  0.19037167     0.66700
H486        H  0.68959933  0.91976652  0.16975120     0.15600
H487        H  0.57138451  0.89454382  0.22637559     0.15300
N488        N  0.59979238  0.83126575  0.20500635     0.74400
O489        O  0.69441137  0.99404557  0.20014149    -0.39000
O490        O  0.64520563  0.00278654  0.17307255    -0.39000
O491        O  0.60469812  0.81403772  0.22520373    -0.39700
O492        O  0.57454360  0.81785230  0.18940876    -0.39700
C493        C  0.83902821  0.60844473  0.20893830    -0.12000
C494        C  0.85556882  0.62284600  0.18690724     0.05000
C495        C  0.89496510  0.60921798  0.17897907    -0.07300
C496        C  0.91655831  0.58179722  0.19298165    -0.08000
C497        C  0.89974958  0.56714444  0.21482094    -0.02600
C498        C  0.86058357  0.58090007  0.22287335     0.04200
N499        N  0.84287011  0.56803771  0.24550061     0.66700
H500        H  0.80875293  0.61845083  0.21542578     0.15600
H501        H  0.94664434  0.57140327  0.18642347     0.15300
N502        N  0.91408449  0.62350948  0.15713337     0.74400
O503        O  0.85626265  0.58154039  0.26551541    -0.39000
O504        O  0.81004464  0.54792113  0.24533569    -0.39000
O505        O  0.93532873  0.65414932  0.15802390    -0.39700
O506        O  0.91711218  0.60173240  0.13863759    -0.39700
C507        C  0.74831760  0.71240518  0.99972252    -0.12000
C508        C  0.75114460  0.74898391  0.01074707     0.05000
C509        C  0.74920311  0.78214041  0.99565961    -0.07300
C510        C  0.74470575  0.77804665  0.97022088    -0.08000
C511        C  0.74235562  0.74143582  0.95917852    -0.02600
C512        C  0.74360919  0.70833216  0.97430633     0.04200
N513        N  0.73776756  0.67051381  0.96436168     0.66700
H514        H  0.74851675  0.68649139  0.01103485     0.15600
H515        H  0.74452779  0.80395997  0.95891091     0.15300
N516        N  0.75416013  0.82005569  0.00563429     0.74400
O517        O  0.76723921  0.64629486  0.96524561    -0.39000
O518        O  0.70134102  0.65910900  0.95935196    -0.39000
O519        O  0.79034911  0.83254463  0.01016170    -0.39700
O520        O  0.72377332  0.84332713  0.00535694    -0.39700
loop_ 
_geom_bond_atom_site_label_1 
_geom_bond_atom_site_label_2 
_geom_bond_distance 
_geom_bond_site_symmetry_2 
_ccdc_geom_bond_type 
N1            N2   1.322       .  A
N1            C5   1.344       .  A
N1           Cu9   2.073       .  S
N2            C3   1.345       .  A
N2           Cu8   2.071       .  S
C3            C4   1.382       .  A
C3            H6   1.083       .  S
C4            C5   1.382       .  A
C4          C480   1.473       .  S
C5            H7   1.081       .  S
Cu8          N11   2.072       .  S
Cu9          N19   2.073       .  S
Cu10         N12   2.077       .  S
Cu10         N18   2.077       .  S
N11          N12   1.321       .  A
N11          C15   1.344       .  A
N12          C13   1.345       .  A
C13          C14   1.387       .  A
C13          H16   1.083       .  S
C14          C15   1.386       .  A
C14         C494   1.486       .  S
C15          H17   1.081       .  S
N18          N19   1.321       .  A
N18          C22   1.345       .  A
N19          C20   1.345       .  A
C20          C21   1.387       .  A
C20          H23   1.083       .  S
C21          C22   1.387       .  A
C21         C508   1.486       .  S
C22          H24   1.081       .  S
N25          N26   1.322       .  A
N25          C29   1.347       .  A
N25         Cu33   2.085       .  S
N26          C27   1.342       .  A
N26         Cu32   2.063       .  S
C27          C28   1.383       .  A
C27          H30   1.083       .  S
C28          C29   1.388       .  A
C28         C452   1.482       .  S
C29          H31   1.081       .  S
Cu32         N35   2.062       .  S
Cu33         N43   2.085       .  S
Cu34         N36   2.076       .  S
Cu34         N42   2.077       .  S
N35          N36   1.321       .  A
N35          C39   1.344       .  A
N36          C37   1.344       .  A
C37          C38   1.386       .  A
C37          H40   1.080       .  S
C38          C39   1.382       .  A
C38         C466   1.477       .  S
C39          H41   1.083       .  S
N42          N43   1.322       .  A
N42          C46   1.345       .  A
N43          C44   1.346       .  A
C44          C45   1.388       .  A
C44          H47   1.083       .  S
C45          C46   1.386       .  A
C45         C511   1.487       .  S
C46          H48   1.080       .  S
N49          N50   1.323       .  A
N49          C53   1.345       .  A
N49         Cu57   2.078       .  S
N50          C51   1.346       .  A
N50         Cu56   2.080       .  S
C51          C52   1.383       .  A
C51          H54   1.083       .  S
C52          C53   1.382       .  A
C52         C424   1.476       .  S
C53          H55   1.081       .  S
Cu56         N59   2.080       .  S
Cu57         N67   2.077       .  S
Cu58         N60   2.070       .  S
Cu58         N66   2.070       .  S
N59          N60   1.323       .  A
N59          C63   1.347       .  A
N60          C61   1.343       .  A
C61          C62   1.380       .  A
C61          H64   1.081       .  S
C62          C63   1.383       .  A
C62         C410   1.473       .  S
C63          H65   1.083       .  S
N66          N67   1.320       .  A
N66          C70   1.345       .  A
N67          C68   1.345       .  A
C68          C69   1.388       .  A
C68          H71   1.080       .  S
C69          C70   1.387       .  A
C69         C441   1.487       .  S
C70          H72   1.083       .  S
N73          N74   1.323       .  A
N73          C77   1.347       .  A
N73         Cu81   2.083       .  S
N74          C75   1.345       .  A
N74         Cu80   2.071       .  S
C75          C76   1.380       .  A
C75          H78   1.082       .  S
C76          C77   1.383       .  A
C76         C399   1.473       .  S
C77          H79   1.081       .  S
Cu80         N83   2.070       .  S
Cu81         N91   2.083       .  S
Cu82         N84   2.075       .  S
Cu82         N90   2.075       .  S
N83          N84   1.322       .  A
N83          C87   1.345       .  A
N84          C85   1.345       .  A
C85          C86   1.384       .  A
C85          H88   1.081       .  S
C86          C87   1.383       .  A
C86         C382   1.477       .  S
C87          H89   1.082       .  S
N90          N91   1.322       .  A
N90          C94   1.345       .  A
N91          C92   1.346       .  A
C92          C93   1.388       .  A
C92          H95   1.080       .  S
C93          C94   1.386       .  A
C93         C438   1.486       .  S
C94          H96   1.083       .  S
C97          N98   1.356       .  A
C97         N102   1.357   1_565  A
C97         C354   1.474       .  S
N98          C99   1.356   1_565  A
C99         N100   1.359       .  A
C99         C107   1.462   1_545  S
N100        C101   1.361       .  A
C101        N102   1.360       .  A
C101        C368   1.485       .  S
C103        N104   1.360   1_545  A
C103        N108   1.361       .  A
C103        C396   1.488       .  S
N104        C105   1.362       .  A
C105        N106   1.357       .  A
C105        C469   1.492       .  S
N106        C107   1.355       .  A
C107        N108   1.356   1_565  A
C109        N110   1.359       .  A
C109        N114   1.362       .  A
C109        C340   1.486       .  S
N110        C111   1.354       .  A
C111        N112   1.354       .  A
C111        C117   1.463   1_455  S
N112        C113   1.360       .  A
C113        N114   1.363       .  A
C113        C326   1.477       .  S
C115        N116   1.357       .  A
C115        N120   1.357       .  A
C115        C497   1.480       .  S
N116        C117   1.356       .  A
C117        N118   1.359       .  A
N118        C119   1.361       .  A
C119        N120   1.360       .  A
C119        C427   1.494       .  S
N121        N122   1.321       .  A
N121        C125   1.343       .  A
N121       Cu129   2.070       .  S
N122        C123   1.346       .  A
N122       Cu128   2.077       .  S
C123        C124   1.388       .  A
C123        H126   1.082       .  S
C124        C125   1.386       .  A
C124        C298   1.485       .  S
C125        H127   1.081       .  S
Cu128       N131   2.078       .  S
Cu129       N139   2.070       .  S
Cu130       N132   2.076       .  S
Cu130       N138   2.076       .  S
N131        N132   1.323       .  A
N131        C135   1.346       .  A
N132        C133   1.344       .  A
C133        C134   1.383       .  A
C133        H136   1.081       .  S
C134        C135   1.384       .  A
C134        C357   1.478       .  S
C135        H137   1.083       .  S
N138        N139   1.320       .  A
N138        C142   1.346       .  A
N139        C140   1.342       .  A
C140        C141   1.388       .  A
C140        H143   1.081       .  S
C141        C142   1.390       .  A
C141        C312   1.492       .  S
C142        H144   1.083       .  S
N145        N146   1.321       .  A
N145        C149   1.344       .  A
N145       Cu153   2.072       .  S
N146        C147   1.345       .  A
N146       Cu152   2.077       .  S
C147        C148   1.388       .  A
C147        H150   1.081       .  S
C148        C149   1.387       .  A
C148        C343   1.487       .  S
C149        H151   1.082       .  S
Cu152       N155   2.077       .  S
Cu153       N163   2.072       .  S
Cu154       N156   2.077       .  S
Cu154       N162   2.076       .  S
N155        N156   1.322       .  A
N155        C159   1.345       .  A
N156        C157   1.346       .  A
C157        C158   1.386       .  A
C157        H160   1.083       .  S
C158        C159   1.386       .  A
C158        C284   1.483       .  S
C159        H161   1.080       .  S
N162        N163   1.321       .  A
N162        C166   1.345       .  A
N163        C164   1.344       .  A
C164        C165   1.387       .  A
C164        H167   1.082       .  S
C165        C166   1.388       .  A
C165        C315   1.488       .  S
C166        H168   1.081       .  S
C169        N170   1.359       .  A
C169        N174   1.360       .  A
C169        C270   1.486       .  S
N170        C171   1.360       .  A
C171        N172   1.358       .  A
C171        C301   1.483       .  S
N172        C173   1.356       .  A
C173        N174   1.355       .  A
C173        C177   1.460   1_455  S
C175        N176   1.358       .  A
C175        N180   1.359       .  A
C175        C455   1.474       .  S
N176        C177   1.356       .  A
C177        N178   1.356       .  A
N178        C179   1.358       .  A
C179        N180   1.358       .  A
C179        C385   1.472       .  S
N181        N182   1.322       .  A
N181        C185   1.345       .  A
N181       Cu189   2.079       .  S
N182        C183   1.344       .  A
N182       Cu188   2.067       .  S
C183        C184   1.384       .  A
C183        H186   1.083       .  S
C184        C185   1.387       .  A
C184        C242   1.482       .  S
C185        H187   1.081       .  S
Cu188       N191   2.066       .  S
Cu189       N199   2.079       .  S
Cu190       N192   2.075       .  S
Cu190       N198   2.075       .  S
N191        N192   1.322       .  A
N191        C195   1.344       .  A
N192        C193   1.345       .  A
C193        C194   1.382       .  A
C193        H196   1.081       .  S
C194        C195   1.380       .  A
C194        C329   1.471       .  S
C195        H197   1.083       .  S
N198        N199   1.322       .  A
N198        C202   1.345       .  A
N199        C200   1.346       .  A
C200        C201   1.386       .  A
C200        H203   1.081       .  S
C201        C202   1.385       .  A
C201        C259   1.481       .  S
C202        H204   1.083       .  S
N205        N206   1.321       .  A
N205        C209   1.345       .  A
N205       Cu213   2.077       .  S
N206        C207   1.345       .  A
N206       Cu212   2.071       .  S
C207        C208   1.384       .  A
C207        H210   1.082       .  S
C208        C209   1.386       .  A
C208        C371   1.481       .  S
C209        H211   1.081       .  S
Cu212       N215   2.071       .  S
Cu213       N223   2.077       .  S
Cu214       N216   2.081       .  S
Cu214       N222   2.081       .  S
N215        N216   1.322       .  A
N215        C219   1.344       .  A
N216        C217   1.346       .  A
C217        C218   1.386       .  A
C217        H220   1.083       .  S
C218        C219   1.383       .  A
C218        C273   1.479       .  S
C219        H221   1.081       .  S
N222        N223   1.322       .  A
N222        C226   1.346       .  A
N223        C224   1.345       .  A
C224        C225   1.385       .  A
C224        H227   1.083       .  S
C225        C226   1.386       .  A
C225        C256   1.484       .  S
C226        H228   1.081       .  S
C229        N230   1.361   1_545  A
C229        N234   1.358       .  A
C229        C245   1.481       .  S
N230        C231   1.360       .  A
C231        N232   1.360       .  A
C231        C287   1.484       .  S
N232        C233   1.357       .  A
C233        N234   1.355   1_565  A
C233        C239   1.462       .  S
C235        N236   1.359       .  A
C235        N240   1.360       .  A
C235        C413   1.483       .  S
N236        C237   1.359   1_545  A
C237        N238   1.358       .  A
C237        C483   1.478       .  S
N238        C239   1.355       .  A
C239        N240   1.357   1_565  A
C241        C242   1.402       .  A
C241        C246   1.399       .  A
C241        H248   1.088       .  S
C242        C243   1.413       .  A
C243        C244   1.400       .  A
C243        N250   1.428       .  S
C244        C245   1.403       .  A
C244        H249   1.088       .  S
C245        C246   1.413       .  A
C246        N247   1.429       .  S
N247        O251   1.262       .  A
N247        O252   1.262       .  A
N250        O254   1.262       .  A
N250        O253   1.262       .  A
C255        C256   1.404       .  A
C255        C260   1.402       .  A
C255        H262   1.088       .  S
C256        C257   1.413       .  A
C257        C258   1.400   1_556  A
C257        N264   1.429       .  S
C258        C259   1.402       .  A
C258        H263   1.088       .  S
C259        C260   1.411   1_554  A
C260        N261   1.429   1_556  S
N261        O265   1.262       .  A
N261        O266   1.262       .  A
N264        O268   1.262       .  A
N264        O267   1.262       .  A
C269        C270   1.406       .  A
C269        C274   1.399       .  A
C269        H276   1.088       .  S
C270        C271   1.415       .  A
C271        C272   1.401       .  A
C271        N278   1.429       .  S
C272        C273   1.403       .  A
C272        H277   1.088       .  S
C273        C274   1.409       .  A
C274        N275   1.429       .  S
N275        O279   1.262       .  A
N275        O280   1.262       .  A
N278        O282   1.262       .  A
N278        O281   1.262       .  A
C283        C284   1.404       .  A
C283        C288   1.401       .  A
C283        H290   1.088       .  S
C284        C285   1.412       .  A
C285        C286   1.401       .  A
C285        N292   1.429       .  S
C286        C287   1.404       .  A
C286        H291   1.088       .  S
C287        C288   1.412       .  A
C288        N289   1.429       .  S
N289        O293   1.262       .  A
N289        O294   1.262       .  A
N292        O296   1.262       .  A
N292        O295   1.262       .  A
C297        C298   1.404       .  A
C297        C302   1.399       .  A
C297        H304   1.087       .  S
C298        C299   1.413       .  A
C299        C300   1.401       .  A
C299        N306   1.428       .  S
C300        C301   1.404       .  A
C300        H305   1.088       .  S
C301        C302   1.413       .  A
C302        N303   1.429       .  S
N303        O307   1.262       .  A
N303        O308   1.262       .  A
N306        O310   1.262       .  A
N306        O309   1.262       .  A
C311        C312   1.405       .  A
C311        C316   1.399       .  A
C311        H318   1.088       .  S
C312        C313   1.415       .  A
C313        C314   1.402       .  A
C313        N320   1.429       .  S
C314        C315   1.404       .  A
C314        H319   1.089       .  S
C315        C316   1.414       .  A
C316        N317   1.429       .  S
N317        O321   1.262       .  A
N317        O322   1.262       .  A
N320        O324   1.262       .  A
N320        O323   1.262       .  A
C325        C326   1.404       .  A
C325        C330   1.398       .  A
C325        H332   1.088       .  S
C326        C327   1.414       .  A
C327        C328   1.402       .  A
C327        N334   1.431       .  S
C328        C329   1.400       .  A
C328        H333   1.088       .  S
C329        C330   1.407       .  A
C330        N331   1.429       .  S
N331        O335   1.262       .  A
N331        O336   1.262       .  A
N334        O338   1.262       .  A
N334        O337   1.262       .  A
C339        C340   1.405       .  A
C339        C344   1.398       .  A
C339        H346   1.088       .  S
C340        C341   1.412       .  A
C341        C342   1.402       .  A
C341        N348   1.428       .  S
C342        C343   1.406       .  A
C342        H347   1.088       .  S
C343        C344   1.413       .  A
C344        N345   1.429       .  S
N345        O349   1.262       .  A
N345        O350   1.262       .  A
N348        O352   1.262       .  A
N348        O351   1.262       .  A
C353        C354   1.402       .  A
C353        C358   1.401       .  A
C353        H360   1.088       .  S
C354        C355   1.410       .  A
C355        C356   1.399       .  A
C355        N362   1.429       .  S
C356        C357   1.403       .  A
C356        H361   1.088       .  S
C357        C358   1.411       .  A
C358        N359   1.429       .  S
N359        O363   1.262       .  A
N359        O364   1.262       .  A
N362        O366   1.262   1_565  A
N362        O365   1.262   1_565  A
C367        C368   1.405       .  A
C367        C372   1.400       .  A
C367        H374   1.088       .  S
C368        C369   1.415       .  A
C369        C370   1.401       .  A
C369        N376   1.429       .  S
C370        C371   1.402       .  A
C370        H375   1.088       .  S
C371        C372   1.411       .  A
C372        N373   1.429       .  S
N373        O377   1.262       .  A
N373        O378   1.262       .  A
N376        O380   1.262       .  A
N376        O379   1.262       .  A
C381        C382   1.403       .  A
C381        C386   1.401       .  A
C381        H388   1.087       .  S
C382        C383   1.411       .  A
C383        C384   1.399       .  A
C383        N390   1.429       .  S
C384        C385   1.401       .  A
C384        H389   1.087       .  S
C385        C386   1.409       .  A
C386        N387   1.429       .  S
N387        O391   1.262       .  A
N387        O392   1.262       .  A
N390        O394   1.262       .  A
N390        O393   1.262       .  A
C395        C396   1.407       .  A
C395        C400   1.400       .  A
C395        H402   1.087       .  S
C396        C397   1.417       .  A
C397        C398   1.401       .  A
C397        N404   1.428       .  S
C398        C399   1.399       .  A
C398        H403   1.088       .  S
C399        C400   1.406       .  A
C400        N401   1.428       .  S
N401        O405   1.262       .  A
N401        O406   1.262       .  A
N404        O408   1.262       .  A
N404        O407   1.262   1_545  A
C409        C410   1.399       .  A
C409        C414   1.399       .  A
C409        H416   1.088       .  S
C410        C411   1.407       .  A
C411        C412   1.401       .  A
C411        N418   1.428       .  S
C412        C413   1.406       .  A
C412        H417   1.088       .  S
C413        C414   1.415       .  A
C414        N415   1.429       .  S
N415        O419   1.262       .  A
N415        O420   1.262   1_545  A
N418        O422   1.262       .  A
N418        O421   1.262       .  A
C423        C424   1.400       .  A
C423        C428   1.402       .  A
C423        H430   1.089       .  S
C424        C425   1.406       .  A
C425        C426   1.399       .  A
C425        N432   1.429       .  S
C426        C427   1.409       .  A
C426        H431   1.088       .  S
C427        C428   1.419       .  A
C428        N429   1.428       .  S
N429        O433   1.262       .  A
N429        O434   1.262       .  A
N432        O436   1.262       .  A
N432        O435   1.262       .  A
C437        C438   1.403       .  A
C437        C442   1.401       .  A
C437        H444   1.089       .  S
C438        C439   1.413       .  A
C439        C440   1.400       .  A
C439        N446   1.429       .  S
C440        C441   1.404       .  A
C440        H445   1.088       .  S
C441        C442   1.414       .  A
C442        N443   1.429       .  S
N443        O447   1.262       .  A
N443        O448   1.262       .  A
N446        O450   1.262       .  A
N446        O449   1.262       .  A
C451        C452   1.403       .  A
C451        C456   1.399       .  A
C451        H458   1.088       .  S
C452        C453   1.415       .  A
C453        C454   1.400       .  A
C453        N460   1.429       .  S
C454        C455   1.400       .  A
C454        H459   1.088       .  S
C455        C456   1.411       .  A
C456        N457   1.429       .  S
N457        O461   1.262       .  A
N457        O462   1.262       .  A
N460        O464   1.262       .  A
N460        O463   1.262       .  A
C465        C466   1.399       .  A
C465        C470   1.398       .  A
C465        H472   1.092       .  S
C466        C467   1.410       .  A
C467        C468   1.399       .  A
C467        N474   1.429       .  S
C468        C469   1.406       .  A
C468        H473   1.094       .  S
C469        C470   1.419       .  A
C470        N471   1.429       .  S
N471        O475   1.262       .  A
N471        O476   1.262       .  A
N474        O478   1.262       .  A
N474        O477   1.262       .  A
C479        C480   1.401       .  A
C479        C484   1.398       .  A
C479        H486   1.088       .  S
C480        C481   1.408       .  A
C481        C482   1.399       .  A
C481        N488   1.429       .  S
C482        C483   1.404       .  A
C482        H487   1.088       .  S
C483        C484   1.413       .  A
C484        N485   1.429       .  S
N485        O489   1.262       .  A
N485        O490   1.262   1_565  A
N488        O492   1.262       .  A
N488        O491   1.262       .  A
C493        C494   1.405       .  A
C493        C498   1.400       .  A
C493        H500   1.088       .  S
C494        C495   1.414       .  A
C495        C496   1.399       .  A
C495        N502   1.428       .  S
C496        C497   1.402       .  A
C496        H501   1.088       .  S
C497        C498   1.411       .  A
C498        N499   1.430       .  S
N499        O503   1.262       .  A
N499        O504   1.262       .  A
N502        O506   1.262       .  A
N502        O505   1.262       .  A
C507        C508   1.404   1_556  A
C507        C512   1.401       .  A
C507        H514   1.088   1_556  S
C508        C509   1.413   1_554  A
C509        C510   1.401       .  A
C509        N516   1.429   1_556  S
C510        C511   1.404       .  A
C510        H515   1.088       .  S
C511        C512   1.412       .  A
C512        N513   1.429       .  S
N513        O517   1.262       .  A
N513        O518   1.262       .  A
N516        O520   1.262       .  A
N516        O519   1.262       .  A
