geometry optimzed in LAMMPS
_audit_creation_date              2020-11-30 
_audit_creation_method            'lammps2cif' 
_symmetry_space_group_name_H-M    'P1' 
_symmetry_Int_Tables_number       1 
_symmetry_cell_setting            triclinic 
loop_ 
_symmetry_equiv_pos_as_xyz 
  x,y,z 
_cell_length_a                    34.04423831 
_cell_length_b                    34.20879969574939 
_cell_length_c                    57.80181050037118 
_cell_angle_alpha                 89.62551994565673 
_cell_angle_beta                  90.743847815402 
_cell_angle_gamma                 119.90282484554827 
loop_ 
_atom_site_label 
_atom_site_type_symbol 
_atom_site_fract_x 
_atom_site_fract_y 
_atom_site_fract_z 
_atom_site_charge 
C1          C  0.06547620  0.13681987  0.64429409     0.02800
C2          C  0.02852454  0.13077093  0.65746486    -0.13400
C3          C  0.02997894  0.13048974  0.68169667     0.00300
C4          C  0.06936515  0.13615581  0.69291312    -0.11900
C5          C  0.10631216  0.14078396  0.68002056     0.02800
C6          C  0.10401365  0.14082962  0.65568089    -0.11300
H7          H  0.99858096  0.12720416  0.64871868     0.08400
H8          H  0.07078669  0.13558500  0.71164203     0.05900
H9          H  0.13284980  0.14572331  0.64569920     0.05700
C10         C  0.03945975  0.77594664  0.64503128     0.02800
C11         C  0.07445837  0.81100954  0.65830588    -0.13400
C12         C  0.07394169  0.80956229  0.68260254     0.00300
C13         C  0.03781420  0.77333772  0.69370484    -0.11900
C14         C  0.00241195  0.73867033  0.68111476     0.02800
C15         C  0.00371902  0.73938551  0.65684262    -0.11300
H16         H  0.10156013  0.84024852  0.64995366     0.08400
H17         H  0.03721314  0.77192027  0.71245594     0.05900
H18         H  0.97663030  0.71168884  0.64737041     0.05700
C19         C  0.92440401  0.90495398  0.84399443     0.79900
N20         N  0.90501210  0.85967796  0.84598101    -0.78400
C21         C  0.93029099  0.83969885  0.84931849     0.82300
N22         N  0.97590567  0.86564761  0.85069111    -0.78400
C23         C  0.99609082  0.91117267  0.84882336     0.82400
N24         N  0.97024710  0.93082151  0.84519022    -0.80100
O25         O  0.67244368  0.05512178  0.75858704    -0.85700
O26         O  0.73395322  0.14370608  0.76454027    -0.82700
C27         C  0.76050762  0.17721309  0.77675002     0.97800
O28         O  0.78979996  0.17575118  0.78991468    -0.82800
O29         O  0.75199532  0.12143983  0.82839822    -0.85400
C30         C  0.73058867  0.08606187  0.84028611     1.02300
O31         O  0.71848383  0.04824750  0.83124707    -0.78200
O32         O  0.65924381  0.03936548  0.79556122    -0.78400
C33         C  0.64743926  0.04746379  0.77610628     1.02200
O34         O  0.74722929  0.03953598  0.74657877    -0.85700
O35         O  0.80599328  0.12903842  0.74939534    -0.82800
C36         C  0.84051192  0.13378478  0.76026372     0.97800
O37         O  0.84025602  0.12964717  0.78188801    -0.82800
O38         O  0.80587634  0.07925287  0.82013925    -0.85400
C39         C  0.79617538  0.03990301  0.81397597     1.02300
O40         O  0.76090677  0.01529080  0.80208471    -0.78200
O41         O  0.69372011  0.99230395  0.76896077    -0.78400
C42         C  0.71988064  0.99948127  0.75220521     1.02200
Cr43       Cr  0.74044328  0.09108939  0.75703487     1.93700
Cr44       Cr  0.79320780  0.12345335  0.80361669     1.93200
Cr45       Cr  0.71074573  0.02794586  0.79853411     1.39100
O46         O  0.74829674  0.08149658  0.78645654    -1.23400
O47         O  0.73414281  0.41184189  0.77387196    -0.85700
O48         O  0.66467460  0.42912474  0.76519814    -0.82700
C49         C  0.64260514  0.41462812  0.78376685     0.97800
O50         O  0.65765603  0.43668760  0.80219047    -0.82800
O51         O  0.71730004  0.49115868  0.83530404    -0.85400
C52         C  0.73892133  0.47279243  0.84346187     1.02300
O53         O  0.76493650  0.46608778  0.83082400    -0.78200
O54         O  0.80026471  0.45258177  0.79106987    -0.78400
C55         C  0.76936239  0.41499359  0.78315808     1.02200
O56         O  0.79746177  0.49439233  0.75187790    -0.85700
O57         O  0.73154745  0.51746762  0.74815133    -0.82800
C58         C  0.70525746  0.53117571  0.75455256     0.97800
O59         O  0.68141118  0.51431273  0.77246798    -0.82800
O60         O  0.74565804  0.56560337  0.80406898    -0.85400
C61         C  0.78234305  0.58234160  0.81525063     1.02300
O62         O  0.80099400  0.55914790  0.81992948    -0.78200
O63         O  0.82966596  0.54612849  0.77848926    -0.78400
C64         C  0.82800131  0.53327457  0.75798927     1.02200
Cr65       Cr  0.73246573  0.46488890  0.76176967     1.93700
Cr66       Cr  0.70320943  0.50079113  0.80253184     1.93200
Cr67       Cr  0.79531263  0.50473213  0.80390186     1.39100
O68         O  0.74349969  0.48973190  0.78964253    -1.23400
O69         O  0.40258683  0.14951405  0.75330357    -0.85700
O70         O  0.41616373  0.08019894  0.76685210    -0.82700
C71         C  0.41273904  0.04804457  0.77911266     0.97800
O72         O  0.37544710  0.02105654  0.78869075    -0.82800
O73         O  0.36592083  0.06901934  0.82436814    -0.85400
C74         C  0.35858502  0.09701070  0.83484405     1.02300
O75         O  0.33891153  0.11526301  0.82434415    -0.78200
O76         O  0.39629132  0.16610575  0.78916590    -0.78400
C77         C  0.41783691  0.17608157  0.77047267     1.02200
O78         O  0.31233496  0.08307363  0.73771384    -0.85700
O79         O  0.33010431  0.01511821  0.74725267    -0.82800
C80         C  0.29128745  0.98743556  0.75484890     0.97800
O81         O  0.28123139  0.99092123  0.77531986    -0.82800
O82         O  0.27166636  0.03232795  0.81291785    -0.85400
C83         C  0.24832280  0.04910273  0.80511204     1.02300
O84         O  0.26547440  0.08216646  0.79151652    -0.78200
O85         O  0.31999247  0.13976826  0.75832765    -0.78400
C86         C  0.30269501  0.11361360  0.74114899     1.02200
Cr87       Cr  0.36368262  0.08187488  0.75329654     1.93700
Cr88       Cr  0.32491694  0.03157688  0.79891710     1.93200
Cr89       Cr  0.33114611  0.12275040  0.79016612     1.39100
O90         O  0.34036391  0.07885572  0.78092806    -1.23400
C91         C  0.75968844  0.78716028  0.64244407     0.02800
C92         C  0.75370636  0.74907799  0.65477711    -0.13400
C93         C  0.74878725  0.74631125  0.67895581     0.00300
C94         C  0.74834178  0.78188991  0.69088832    -0.11900
C95         C  0.75499557  0.82077716  0.67894943     0.02800
C96         C  0.76143568  0.82326081  0.65487601    -0.11300
H97         H  0.75133229  0.72055868  0.64551952     0.08400
H98         H  0.74444017  0.78003047  0.70950322     0.05900
H99         H  0.76679622  0.85322341  0.64574595     0.05700
C100        C  0.40486018  0.80323765  0.30394715     0.02800
C101        C  0.36885599  0.80383100  0.31539152    -0.13400
C102        C  0.36534261  0.79996278  0.33972885     0.00300
C103        C  0.39871807  0.79581947  0.35243531    -0.11900
C104        C  0.43410512  0.79423034  0.34112446     0.02800
C105        C  0.43646146  0.79726693  0.31701715    -0.11300
H106        H  0.34457868  0.80894563  0.30547163     0.08400
H107        H  0.39658149  0.79248746  0.37108936     0.05900
H108        H  0.46383556  0.79586291  0.30842526     0.05700
C109        C  0.02955190  0.45985126  0.31441205     0.02800
C110        C  0.03243408  0.42363842  0.32426889    -0.13400
C111        C  0.03371271  0.41882849  0.34843334     0.00300
C112        C  0.03211149  0.45109827  0.36280776    -0.11900
C113        C  0.02845732  0.48741139  0.35347955     0.02800
C114        C  0.02703943  0.49110147  0.32920122    -0.11300
H115        H  0.03264618  0.39847950  0.31308447     0.08400
H116        H  0.03525608  0.44857015  0.38132788     0.05900
H117        H  0.02408591  0.51850880  0.32166107     0.05700
C118        C  0.25681560  0.59043266  0.51935026     0.79900
N119        N  0.30249308  0.61576011  0.51942721    -0.78400
C120        C  0.32882184  0.59688269  0.51699810     0.82300
N121        N  0.30886209  0.55143115  0.51478758    -0.78400
C122        C  0.26290234  0.52504905  0.51486841     0.82400
N123        N  0.23680421  0.54491795  0.51667944    -0.80100
O124        O  0.04374301  0.80784666  0.43582835    -0.85700
O125        O  0.13412100  0.86739773  0.43196047    -0.82700
C126        C  0.14346989  0.88924862  0.45080885     0.97800
O127        O  0.14842013  0.87209011  0.46927916    -0.82800
O128        O  0.13019995  0.80529967  0.50152755    -0.85400
C129        C  0.09106231  0.79267970  0.50919175     1.02300
O130        O  0.05684534  0.77268116  0.49596731    -0.78200
O131        O  0.00762921  0.74377097  0.45461962    -0.78400
C132        C  0.00802236  0.77727619  0.44490090     1.02200
O133        O  0.05525375  0.73727656  0.41527233    -0.85700
O134        O  0.14633910  0.79378653  0.41490116    -0.82800
C135        C  0.18640968  0.81664308  0.42236796     0.97800
O136        O  0.19394821  0.83763704  0.44129652    -0.82800
O137        O  0.16568002  0.76559533  0.47127859    -0.85400
C138        C  0.13841434  0.72886148  0.48098157     1.02300
O139        O  0.09855536  0.71954872  0.48578810    -0.78200
O140        O  0.05584951  0.69615187  0.44428058    -0.78400
C141        C  0.05189660  0.70099774  0.42292943     1.02200
Cr142      Cr  0.09547658  0.80044883  0.42673539     1.93700
Cr143      Cr  0.15546449  0.81778448  0.46970809     1.93200
Cr144      Cr  0.05801723  0.73706732  0.46898968     1.39100
O145        O  0.10267231  0.78515731  0.45522831    -1.23400
O146        O  0.08105201  0.10702415  0.43096424    -0.85700
O147        O  0.00865834  0.12069928  0.42556340    -0.82700
C148        C  0.98397302  0.10126970  0.44294829     0.97800
O149        O  0.99604322  0.11832525  0.46285421    -0.82800
O150        O  0.05206377  0.16813444  0.49924127    -0.85400
C151        C  0.07222065  0.14767977  0.50644222     1.02300
O152        O  0.09797224  0.14209693  0.49317770    -0.78200
O153        O  0.14109036  0.14068150  0.45366611    -0.78400
C154        C  0.11387248  0.10707708  0.44140487     1.02200
O155        O  0.14271360  0.19776441  0.41617606    -0.85700
O156        O  0.07199640  0.21480996  0.41448962    -0.82800
C157        C  0.04102691  0.22177010  0.42137170     0.97800
O158        O  0.01775012  0.20027080  0.43869871    -0.82800
O159        O  0.08033387  0.24747723  0.47250682    -0.85400
C160        C  0.11632803  0.26302126  0.48435598     1.02300
O161        O  0.13462131  0.23909493  0.48849408    -0.78200
O162        O  0.17104511  0.23619521  0.44809914    -0.78400
C163        C  0.17310940  0.23210812  0.42667007     1.02200
Cr164      Cr  0.07651934  0.16126929  0.42406047     1.93700
Cr165      Cr  0.03967585  0.18275635  0.46728378     1.93200
Cr166      Cr  0.13232213  0.18834077  0.46954124     1.39100
O167        O  0.08287701  0.17709243  0.45366173    -1.23400
O168        O  0.73572466  0.85018487  0.43174822    -0.85700
O169        O  0.76022390  0.78552500  0.43700503    -0.82700
C170        C  0.76116922  0.75236417  0.44607238     0.97800
O171        O  0.72542226  0.71991708  0.45429512    -0.82800
O172        O  0.71205769  0.75461039  0.49512713    -0.85400
C173        C  0.70118628  0.77769145  0.50781147     1.02300
O174        O  0.67390583  0.78978579  0.50022385    -0.78200
O175        O  0.72487687  0.85463154  0.46877422    -0.78400
C176        C  0.74760655  0.87166575  0.45074273     1.02200
O177        O  0.64818952  0.78133987  0.41335699    -0.85700
O178        O  0.67579939  0.71889269  0.41518504    -0.82800
C179        C  0.63983390  0.68493919  0.42230897     0.97800
O180        O  0.63008533  0.68130317  0.44349840    -0.82800
O181        O  0.61639809  0.70750152  0.48551261    -0.85400
C182        C  0.58731417  0.71890799  0.48038677     1.02300
O183        O  0.59851294  0.75463715  0.46911556    -0.78200
O184        O  0.64723831  0.82648753  0.43954983    -0.78400
C185        C  0.63358297  0.80647264  0.42038964     1.02200
Cr186      Cr  0.70328582  0.78302300  0.42639296     1.93700
Cr187      Cr  0.67189799  0.71954157  0.46847240     1.93200
Cr188      Cr  0.66242012  0.80377546  0.46829059     1.39100
O189        O  0.67957194  0.76893262  0.45440784    -1.23400
C190        C  0.39665376  0.45742824  0.31182909     0.02800
C191        C  0.43097281  0.49328041  0.32507037    -0.13400
C192        C  0.43603941  0.48787272  0.34899084     0.00300
C193        C  0.40693056  0.44618300  0.35936252    -0.11900
C194        C  0.37167057  0.41103521  0.34686650     0.02800
C195        C  0.36775765  0.41640954  0.32309838    -0.11300
H196        H  0.45258730  0.52567615  0.31710097     0.08400
H197        H  0.41104710  0.44134685  0.37759206     0.05900
H198        H  0.34125605  0.38851141  0.31351107     0.05700
C199        C  0.73997392  0.12530845  0.97696477     0.02800
C200        C  0.77674098  0.16009208  0.98911851    -0.13400
C201        C  0.78097183  0.15813475  0.01326857     0.00300
C202        C  0.74807170  0.12032146  0.02529439    -0.11900
C203        C  0.71073024  0.08553470  0.01365586     0.02800
C204        C  0.70665563  0.08856502  0.98957925    -0.11300
H205        H  0.80246089  0.18869384  0.97976280     0.08400
H206        H  0.75128945  0.11795293  0.04383862     0.05900
H207        H  0.67754697  0.06187292  0.98069692     0.05700
C208        C  0.70947322  0.44980787  0.98092972     0.02800
C209        C  0.67964926  0.45662087  0.99497059    -0.13400
C210        C  0.68566063  0.46077679  0.01921910     0.00300
C211        C  0.72368207  0.46085348  0.02916212    -0.11900
C212        C  0.75296401  0.45310333  0.01567542     0.02800
C213        C  0.74464551  0.44596093  0.99188736    -0.11300
H214        H  0.65165730  0.45854315  0.98719462     0.08400
H215        H  0.73023925  0.46614082  0.04759025     0.05900
H216        H  0.76663089  0.43823632  0.98198729     0.05700
C217        C  0.59379705  0.26927918  0.18634147     0.79900
N218        N  0.57080636  0.22359431  0.18685175    -0.78400
C219        C  0.59238166  0.19950205  0.18609766     0.82300
N220        N  0.63829110  0.22174875  0.18498880    -0.78400
C221        C  0.66241705  0.26765421  0.18467482     0.82400
N222        N  0.63990766  0.29142717  0.18496676    -0.80100
O223        O  0.06826796  0.51500057  0.09330959    -0.85700
O224        O  0.08409200  0.44614781  0.10197531    -0.82700
C225        C  0.08480161  0.41472010  0.11301329     0.97800
O226        O  0.05198148  0.38891583  0.12606113    -0.82800
O227        O  0.04624179  0.43515271  0.16390013    -0.85400
C228        C  0.03806792  0.46067745  0.17599029     1.02300
O229        O  0.01757801  0.47946411  0.16697693    -0.78200
O230        O  0.07027753  0.53196948  0.13007307    -0.78400
C231        C  0.08786691  0.54143320  0.11025685     1.02200
O232        O  0.97469903  0.44789449  0.08205291    -0.85700
O233        O  0.99458869  0.38066082  0.08697172    -0.82800
C234        C  0.95961833  0.35136241  0.09727304     0.97800
O235        O  0.95496855  0.35516561  0.11846632    -0.82800
O236        O  0.94841612  0.39560878  0.15653017    -0.85400
C237        C  0.92391194  0.41233589  0.15009386     1.02300
O238        O  0.94019479  0.44696002  0.13747391    -0.78200
O239        O  0.98888492  0.50598458  0.10324479    -0.78400
C240        C  0.96729838  0.47941841  0.08673178     1.02200
Cr241      Cr  0.02916634  0.44729794  0.09326404     1.93700
Cr242      Cr  0.00168704  0.39725278  0.13991400     1.93200
Cr243      Cr  0.00524289  0.48809976  0.13367693     1.39100
O244        O  0.01257447  0.44419697  0.12241416    -1.23400
O245        O  0.43146388  0.79036153  0.08981149    -0.85700
O246        O  0.34655635  0.77537175  0.09953165    -0.82700
C247        C  0.31581418  0.77968413  0.10895478     0.97800
O248        O  0.32335645  0.81821642  0.11550053    -0.82800
O249        O  0.37382376  0.82980594  0.15445254    -0.85400
C250        C  0.40675567  0.83495460  0.16687325     1.02300
O251        O  0.44685894  0.85550795  0.15905264    -0.78200
O252        O  0.45286013  0.80216152  0.12621314    -0.78400
C253        C  0.44398711  0.77898948  0.10814315     1.02200
O254        O  0.45241643  0.87730348  0.07139533    -0.85700
O255        O  0.36557951  0.85791323  0.07652445    -0.82800
C256        C  0.37603453  0.89770955  0.08205069     0.97800
O257        O  0.38879736  0.91132374  0.10245432    -0.82800
O258        O  0.43191353  0.92380713  0.14470842    -0.85400
C259        C  0.47369094  0.94698119  0.14010523     1.02300
O260        O  0.49187442  0.93069474  0.12762911    -0.78200
O261        O  0.50281633  0.87884802  0.09592883    -0.78400
C262        C  0.49309163  0.89163668  0.07711567     1.02200
Cr263      Cr  0.40027462  0.82702750  0.08632018     1.93700
Cr264      Cr  0.38186531  0.86973535  0.12807185     1.93200
Cr265      Cr  0.46963622  0.86573972  0.12624308     1.39100
O266        O  0.41723534  0.85379961  0.11369750    -1.23400
O267        O  0.33401790  0.41266522  0.09850593    -0.85700
O268        O  0.39397753  0.50206247  0.10296363    -0.82700
C269        C  0.42716530  0.53853631  0.10962092     0.97800
O270        O  0.46177562  0.53908824  0.11843751    -0.82800
O271        O  0.43295751  0.49430653  0.16033560    -0.85400
C272        C  0.41332684  0.46230596  0.17452904     1.02300
O273        O  0.39816017  0.42161853  0.16820444    -0.78200
O274        O  0.33077750  0.39750738  0.13555968    -0.78400
C275        C  0.31232948  0.40134439  0.11734827     1.02200
O276        O  0.40763800  0.40216868  0.08115346    -0.85700
O277        O  0.46527644  0.49137127  0.08175864    -0.82800
C278        C  0.49994759  0.49004165  0.08897773     0.97800
O279        O  0.50489020  0.48552857  0.11022006    -0.82800
O280        O  0.48447274  0.45031868  0.15325668    -0.85400
C281        C  0.47434875  0.40984684  0.14988155     1.02300
O282        O  0.43852063  0.38315808  0.13906438    -0.78200
O283        O  0.36735808  0.35254989  0.10750932    -0.78400
C284        C  0.38490657  0.36190359  0.08746942     1.02200
Cr285      Cr  0.40134620  0.45149614  0.09334061     1.93700
Cr286      Cr  0.46716593  0.48918952  0.13447393     1.93200
Cr287      Cr  0.38593945  0.39253459  0.13641713     1.39100
O288        O  0.41776143  0.44437996  0.12156816    -1.23400
C289        C  0.36991873  0.12936829  0.97285841     0.02800
C290        C  0.37935822  0.09776901  0.98375101    -0.13400
C291        C  0.38491144  0.09786123  0.00784487     0.00300
C292        C  0.37918051  0.12840474  0.02131573    -0.11900
C293        C  0.36755985  0.15873906  0.01134968     0.02800
C294        C  0.36392956  0.15972912  0.98699256    -0.11300
H295        H  0.38248131  0.07297307  0.97362798     0.08400
H296        H  0.38359902  0.12820455  0.03990557     0.05900
H297        H  0.35638746  0.18405713  0.97914300     0.05700
C298        C  0.37924397  0.32697431  0.07037310    -0.05600
C299        C  0.39572546  0.34096416  0.04776069    -0.05500
C300        C  0.39413389  0.31052407  0.03138273    -0.23700
C301        C  0.37598681  0.26507558  0.03706605     0.18500
C302        C  0.35771773  0.24991004  0.05935741     0.15800
C303        C  0.35933435  0.28092097  0.07592521    -0.18700
C304        C  0.33911601  0.20414608  0.06477455    -0.20500
C305        C  0.34032460  0.17432931  0.04871255    -0.13100
C306        C  0.36059495  0.18953495  0.02689082     0.03600
C307        C  0.37721833  0.23495972  0.02101469    -0.25200
H308        H  0.41072432  0.37598934  0.04265499     0.08700
H309        H  0.40792206  0.32278722  0.01435731     0.12300
H310        H  0.34622307  0.26946791  0.09313962     0.12200
H311        H  0.32436847  0.19151229  0.08158846     0.11900
H312        H  0.32599132  0.13926517  0.05358958     0.12500
H313        H  0.39311871  0.24745178  0.00440558     0.14400
C314        C  0.42583635  0.58065789  0.10605579    -0.05600
C315        C  0.39288391  0.58105643  0.09121635    -0.05500
C316        C  0.39128529  0.62062638  0.08760003    -0.23700
C317        C  0.42218560  0.66039881  0.09900485     0.18500
C318        C  0.45530345  0.66024896  0.11403308     0.15800
C319        C  0.45721803  0.62057793  0.11725747    -0.18700
C320        C  0.48544892  0.69959017  0.12595774    -0.20500
C321        C  0.48213367  0.73838992  0.12352410    -0.13100
C322        C  0.44925436  0.73885424  0.10875785     0.03600
C323        C  0.41986655  0.69999980  0.09614460    -0.25200
H324        H  0.36840687  0.55074777  0.08225895     0.08700
H325        H  0.36553876  0.61997323  0.07608042     0.12300
H326        H  0.48260132  0.62058958  0.12882833     0.12200
H327        H  0.51101572  0.70010358  0.13756047     0.11900
H328        H  0.50515563  0.76811107  0.13334735     0.12500
H329        H  0.39403759  0.70005204  0.08494123     0.14400
C330        C  0.39522216  0.06545108  0.01974211    -0.05600
C331        C  0.42978806  0.08126954  0.03666062    -0.05500
C332        C  0.43414334  0.05128034  0.05148091    -0.23700
C333        C  0.40379766  0.00488532  0.04973480     0.18500
C334        C  0.37072484  0.98828291  0.03182612     0.15800
C335        C  0.36687513  0.01873483  0.01676848    -0.18700
C336        C  0.34090664  0.94166430  0.02997299    -0.20500
C337        C  0.34287392  0.91199002  0.04613840    -0.13100
C338        C  0.37418161  0.92853235  0.06460751     0.03600
C339        C  0.40511228  0.97499990  0.06603902    -0.25200
H340        H  0.45226669  0.11714006  0.03902945     0.08700
H341        H  0.46014770  0.06451902  0.06487980     0.12300
H342        H  0.34005499  0.00631342  0.00379144     0.12200
H343        H  0.31557583  0.92822082  0.01625969     0.11900
H344        H  0.31922159  0.87620769  0.04453739     0.12500
H345        H  0.43017852  0.98791337  0.07991792     0.14400
C346        C  0.12459731  0.40858378  0.10952861    -0.05600
C347        C  0.15048013  0.42648243  0.08937692    -0.05500
C348        C  0.19046958  0.42548732  0.08614854    -0.23700
C349        C  0.20600298  0.40701894  0.10312289     0.18500
C350        C  0.17985270  0.38765032  0.12319043     0.15800
C351        C  0.13888423  0.38797102  0.12616007    -0.18700
C352        C  0.19610988  0.36988926  0.14028787    -0.20500
C353        C  0.23849288  0.37302366  0.13798200    -0.13100
C354        C  0.26528338  0.39336181  0.11837058     0.03600
C355        C  0.24811072  0.40922639  0.10070430    -0.25200
H356        H  0.14009219  0.44204099  0.07609055     0.08700
H357        H  0.20988092  0.44030657  0.07061923     0.12300
H358        H  0.11938019  0.37413993  0.14176334     0.12200
H359        H  0.17667773  0.35476087  0.15576704     0.11900
H360        H  0.25072992  0.36027636  0.15183331     0.12500
H361        H  0.26841045  0.42521930  0.08555727     0.14400
C362        C  0.27087112  0.73938580  0.11198758    -0.05600
C363        C  0.24499152  0.73469342  0.13160487    -0.05500
C364        C  0.20411044  0.69476820  0.13536711    -0.23700
C365        C  0.18812736  0.65930539  0.11932468     0.18500
C366        C  0.21351513  0.66430689  0.09925203     0.15800
C367        C  0.25489968  0.70403447  0.09586320    -0.18700
C368        C  0.19721192  0.62941617  0.08293482    -0.20500
C369        C  0.15615769  0.58976841  0.08647362    -0.13100
C370        C  0.13091487  0.58399323  0.10653914     0.03600
C371        C  0.14724336  0.61898277  0.12297007    -0.25200
H372        H  0.25708496  0.76139472  0.14436097     0.08700
H373        H  0.18510336  0.69156523  0.15084329     0.12300
H374        H  0.27470241  0.70753195  0.08064427     0.12200
H375        H  0.21619825  0.63278983  0.06742244     0.11900
H376        H  0.14442690  0.56331077  0.07359996     0.12500
H377        H  0.12796744  0.61505164  0.13845128     0.14400
C378        C  0.50393063  0.39318091  0.15911894    -0.05600
C379        C  0.55127876  0.42105428  0.15988381    -0.05500
C380        C  0.57913107  0.40360069  0.16682466    -0.23700
C381        C  0.55993218  0.35818964  0.17346533     0.18500
C382        C  0.51219238  0.33092323  0.17396219     0.15800
C383        C  0.48464807  0.34839376  0.16662491    -0.18700
C384        C  0.49253396  0.28609027  0.18115464    -0.20500
C385        C  0.51967012  0.26743973  0.18650502    -0.13100
C386        C  0.56719764  0.29295035  0.18456184     0.03600
C387        C  0.58731572  0.33902703  0.17878963    -0.25200
H388        H  0.56676801  0.45586538  0.15429403     0.08700
H389        H  0.61556559  0.42528834  0.16653378     0.12300
H390        H  0.44811839  0.32695780  0.16648983     0.12200
H391        H  0.45605431  0.26500174  0.18200788     0.11900
H392        H  0.50293620  0.23216105  0.19133684     0.12500
H393        H  0.62379994  0.35930845  0.17743530     0.14400
C394        C  0.50220267  0.99267212  0.14994192    -0.05600
C395        C  0.54966897  0.01425824  0.14804672    -0.05500
C396        C  0.57719947  0.05773812  0.15666021    -0.23700
C397        C  0.55781395  0.08076470  0.16714718     0.18500
C398        C  0.51025034  0.05904085  0.16972946     0.15800
C399        C  0.48274968  0.01498534  0.16130994    -0.18700
C400        C  0.49089440  0.08230802  0.18001483    -0.20500
C401        C  0.51810465  0.12736273  0.18651906    -0.13100
C402        C  0.56526839  0.14993785  0.18310456     0.03600
C403        C  0.58507330  0.12579837  0.17415195    -0.25200
H404        H  0.56569113  0.99760188  0.13972166     0.08700
H405        H  0.61354254  0.07369738  0.15464368     0.12300
H406        H  0.44630748  0.99865249  0.16304406     0.12200
H407        H  0.45460664  0.06619823  0.18229070     0.11900
H408        H  0.50189340  0.14499123  0.19354939     0.12500
H409        H  0.62127093  0.14266912  0.17135565     0.14400
C410        C  0.87586820  0.39226872  0.15727657    -0.05600
C411        C  0.85198206  0.41507968  0.15197392    -0.05500
C412        C  0.80622390  0.39629157  0.15731057    -0.23700
C413        C  0.78296957  0.35398669  0.16792803     0.18500
C414        C  0.80641800  0.33066954  0.17353377     0.15800
C415        C  0.85280966  0.35005665  0.16833257    -0.18700
C416        C  0.78273551  0.28793675  0.18378783    -0.20500
C417        C  0.73623848  0.26810575  0.18787787    -0.13100
C418        C  0.71244654  0.29076149  0.18209682     0.03600
C419        C  0.73639932  0.33420614  0.17248403    -0.25200
H420        H  0.86860696  0.44759253  0.14344206     0.08700
H421        H  0.78885942  0.41462888  0.15280565     0.12300
H422        H  0.87055160  0.33187817  0.17236687     0.12200
H423        H  0.79997072  0.26946399  0.18825674     0.11900
H424        H  0.71874546  0.23467997  0.19540760     0.12500
H425        H  0.71853618  0.35195668  0.16774348     0.14400
C426        C  0.65189841  0.46341167  0.03449638    -0.05600
C427        C  0.64235765  0.44203479  0.05625963    -0.05500
C428        C  0.61188090  0.44451578  0.07118206    -0.23700
C429        C  0.58931488  0.46762918  0.06457000     0.18500
C430        C  0.59716140  0.48825822  0.04258236     0.15800
C431        C  0.62875044  0.48639152  0.02771742    -0.18700
C432        C  0.57297998  0.51004304  0.03591532    -0.20500
C433        C  0.54123189  0.51102029  0.05085201    -0.13100
C434        C  0.53407044  0.49123684  0.07289133     0.03600
C435        C  0.55851249  0.46978033  0.07958094    -0.25200
H436        H  0.65816959  0.42278076  0.06177779     0.08700
H437        H  0.60563687  0.42791594  0.08786565     0.12300
H438        H  0.63555784  0.50318821  0.01109145     0.12200
H439        H  0.57825417  0.52587411  0.01907470     0.11900
H440        H  0.52254685  0.52743112  0.04526690     0.12500
H441        H  0.55265654  0.45353963  0.09636878     0.14400
C442        C  0.79265052  0.45275350  0.02634797    -0.05600
C443        C  0.80126964  0.41751814  0.02157382    -0.05500
C444        C  0.83851720  0.41694213  0.03161794    -0.23700
C445        C  0.86788628  0.45169418  0.04657773     0.18500
C446        C  0.86006802  0.48775897  0.05116735     0.15800
C447        C  0.82245362  0.48801759  0.04105633    -0.18700
C448        C  0.88958313  0.52252454  0.06610192    -0.20500
C449        C  0.92544799  0.52067481  0.07712659    -0.13100
C450        C  0.93266928  0.48424997  0.07324109     0.03600
C451        C  0.90424167  0.45035480  0.05747666    -0.25200
H452        H  0.77868884  0.38999747  0.01032682     0.08700
H453        H  0.84403943  0.38905162  0.02790311     0.12300
H454        H  0.81638257  0.51564930  0.04454847     0.12200
H455        H  0.88432047  0.55062270  0.06966706     0.11900
H456        H  0.94695246  0.54729115  0.08907658     0.12500
H457        H  0.90935221  0.42201446  0.05427810     0.14400
C458        C  0.52901019  0.92463961  0.06180548    -0.05600
C459        C  0.51706261  0.94386404  0.04333853    -0.05500
C460        C  0.55022000  0.97817917  0.02995840    -0.23700
C461        C  0.59609784  0.99400104  0.03469408     0.18500
C462        C  0.60872625  0.97438105  0.05282767     0.15800
C463        C  0.57508681  0.93975982  0.06629375    -0.18700
C464        C  0.65480598  0.99046207  0.05745134    -0.20500
C465        C  0.68794424  0.02616204  0.04454395    -0.13100
C466        C  0.67563545  0.04639545  0.02675234     0.03600
C467        C  0.62949046  0.02973319  0.02182964    -0.25200
H468        H  0.48189354  0.93323255  0.03955030     0.08700
H469        H  0.53995327  0.99283746  0.01613563     0.12300
H470        H  0.58477316  0.92535756  0.08049279     0.12200
H471        H  0.66522214  0.97574227  0.07117217     0.11900
H472        H  0.72330026  0.03794587  0.04845289     0.12500
H473        H  0.61951449  0.04537789  0.00838045     0.14400
C474        C  0.81965397  0.19553235  0.02595486    -0.05600
C475        C  0.86296817  0.21896339  0.01604272    -0.05500
C476        C  0.89914470  0.25432189  0.02788732    -0.23700
C477        C  0.89296680  0.26641051  0.05008031     0.18500
C478        C  0.84978434  0.24271872  0.06034676     0.15800
C479        C  0.81341728  0.20803730  0.04815031    -0.18700
C480        C  0.84358073  0.25402043  0.08269047    -0.20500
C481        C  0.87981354  0.28857247  0.09475481    -0.13100
C482        C  0.92282866  0.31293911  0.08462016     0.03600
C483        C  0.92919354  0.30172140  0.06218667    -0.25200
H484        H  0.86921456  0.20963840  0.99919760     0.08700
H485        H  0.93200392  0.27184466  0.01979840     0.12300
H486        H  0.78022086  0.19113732  0.05591605     0.12200
H487        H  0.81076734  0.23619821  0.09082478     0.11900
H488        H  0.87380730  0.29685033  0.11193891     0.12500
H489        H  0.96211483  0.32029914  0.05421371     0.14400
C490        C  0.41394761  0.47309288  0.19930764    -0.05600
C491        C  0.45510355  0.50547674  0.20946797    -0.05500
C492        C  0.45939942  0.51134460  0.23345214    -0.23700
C493        C  0.42222632  0.48568677  0.24771926     0.18500
C494        C  0.37967442  0.45573025  0.23751620     0.15800
C495        C  0.37590955  0.44889742  0.21337297    -0.18700
C496        C  0.34204352  0.43213339  0.25174096    -0.20500
C497        C  0.34712739  0.43565653  0.27580126    -0.13100
C498        C  0.39027245  0.46148463  0.28633174     0.03600
C499        C  0.42740785  0.48804743  0.27197900    -0.25200
H500        H  0.48481542  0.52450430  0.19890559     0.08700
H501        H  0.49212621  0.53500761  0.24086734     0.12300
H502        H  0.34391567  0.42426270  0.20561218     0.12200
H503        H  0.30880863  0.41021203  0.24429148     0.11900
H504        H  0.31706436  0.41692206  0.28611733     0.12500
H505        H  0.46083348  0.50866806  0.27948778     0.14400
C506        C  0.60829097  0.64987429  0.40570885    -0.05600
C507        C  0.62226006  0.64635718  0.38338395    -0.05500
C508        C  0.59152886  0.61462650  0.36749269    -0.23700
C509        C  0.54597493  0.58628781  0.37345295     0.18500
C510        C  0.53158853  0.59012805  0.39574865     0.15800
C511        C  0.56273066  0.62136866  0.41171130    -0.18700
C512        C  0.48612695  0.56285338  0.40174902    -0.20500
C513        C  0.45532636  0.53127141  0.38609962    -0.13100
C514        C  0.46914515  0.52558550  0.36410138     0.03600
C515        C  0.51462461  0.55400350  0.35769674    -0.25200
H516        H  0.65702146  0.66814184  0.37821190     0.08700
H517        H  0.60335168  0.61246392  0.35049023     0.12300
H518        H  0.55116130  0.62417292  0.42869411     0.12200
H519        H  0.47435796  0.56574850  0.41864653     0.11900
H520        H  0.42041158  0.51073823  0.39136612     0.12500
H521        H  0.52582808  0.55010891  0.34083656     0.14400
C522        C  0.94022443  0.05892537  0.43996397    -0.05600
C523        C  0.92891391  0.03506980  0.41895207    -0.05500
C524        C  0.88823769  0.99422163  0.41654065    -0.23700
C525        C  0.85810890  0.97661209  0.43508787     0.18500
C526        C  0.86885083  0.00080225  0.45612632     0.15800
C527        C  0.90967533  0.04164755  0.45842238    -0.18700
C528        C  0.83891951  0.98345967  0.47469885    -0.20500
C529        C  0.79913739  0.94196724  0.47267084    -0.13100
C530        C  0.78835298  0.91704113  0.45200313     0.03600
C531        C  0.81783452  0.93493120  0.43311451    -0.25200
H532        H  0.95184214  0.04765080  0.40446054     0.08700
H533        H  0.88057942  0.97621884  0.40027670     0.12300
H534        H  0.91775843  0.05977863  0.47467639     0.12200
H535        H  0.84657152  0.00166513  0.49090391     0.11900
H536        H  0.77703955  0.92912064  0.48747942     0.12500
H537        H  0.81002587  0.91607368  0.41710976     0.14400
C538        C  0.21132530  0.26877374  0.41418190    -0.05600
C539        C  0.23311367  0.31221199  0.42392429    -0.05500
C540        C  0.26904870  0.34801357  0.41274293    -0.23700
C541        C  0.28429963  0.34102100  0.39168055     0.18500
C542        C  0.26311646  0.29752922  0.38167265     0.15800
C543        C  0.22626092  0.26153926  0.39290234    -0.18700
C544        C  0.27916383  0.29107332  0.36060783    -0.20500
C545        C  0.31533952  0.32752865  0.34947904    -0.13100
C546        C  0.33595270  0.37102344  0.35920010     0.03600
C547        C  0.32014258  0.37722385  0.38040505    -0.25200
H548        H  0.22192167  0.31874513  0.44018922     0.08700
H549        H  0.28488365  0.38114794  0.42057271     0.12300
H550        H  0.20970545  0.22817546  0.38531626     0.12200
H551        H  0.26364094  0.25803379  0.35270747     0.11900
H552        H  0.32706672  0.32171832  0.33321778     0.12500
H553        H  0.33481159  0.41060655  0.38787186     0.14400
C554        C  0.80385514  0.75053080  0.44696438    -0.05600
C555        C  0.80344533  0.71178542  0.45562526    -0.05500
C556        C  0.84322382  0.70951412  0.45701543    -0.23700
C557        C  0.88441492  0.74598546  0.44980109     0.18500
C558        C  0.88551017  0.78521082  0.44106845     0.15800
C559        C  0.84524955  0.78727980  0.43968971    -0.18700
C560        C  0.92688470  0.82163836  0.43387100    -0.20500
C561        C  0.96663340  0.81907173  0.43515838    -0.13100
C562        C  0.96588761  0.78011226  0.44375068     0.03600
C563        C  0.92446427  0.74372419  0.45114879    -0.25200
H564        H  0.77220242  0.68297485  0.46139651     0.08700
H565        H  0.84174435  0.67920527  0.46374875     0.12300
H566        H  0.84621764  0.81744849  0.43308539     0.12200
H567        H  0.92849976  0.85204204  0.42719244     0.11900
H568        H  0.99805502  0.84773026  0.42943702     0.12500
H569        H  0.92324141  0.71346907  0.45780334     0.14400
C570        C  0.14761800  0.93472557  0.45108588    -0.05600
C571        C  0.16972245  0.96497072  0.46944567    -0.05500
C572        C  0.17022319  0.00620005  0.47053407    -0.23700
C573        C  0.14773459  0.01762521  0.45356991     0.18500
C574        C  0.12587593  0.98767274  0.43491912     0.15800
C575        C  0.12657198  0.94695300  0.43361296    -0.18700
C576        C  0.10233276  0.99819071  0.41825365    -0.20500
C577        C  0.09924573  0.03724564  0.42033116    -0.13100
C578        C  0.12030270  0.06727003  0.43889835     0.03600
C579        C  0.14539971  0.05761168  0.45527056    -0.25200
H580        H  0.18625685  0.95651819  0.48310345     0.08700
H581        H  0.18724206  0.02865055  0.48499983     0.12300
H582        H  0.10892535  0.92381068  0.41945473     0.12200
H583        H  0.08533322  0.97560807  0.40382166     0.11900
H584        H  0.07999124  0.04382141  0.40739582     0.12500
H585        H  0.16161571  0.08026050  0.46977450     0.14400
C586        C  0.24193540  0.47551435  0.51146502    -0.05600
C587        C  0.26942646  0.45580275  0.50890140    -0.05500
C588        C  0.25027140  0.40968257  0.50449330    -0.23700
C589        C  0.20318391  0.38221196  0.50241981     0.18500
C590        C  0.17513288  0.40139198  0.50535712     0.15800
C591        C  0.19458998  0.44771197  0.51000730    -0.18700
C592        C  0.12807611  0.37415547  0.50294680    -0.20500
C593        C  0.10910553  0.32883948  0.49680375    -0.13100
C594        C  0.13667845  0.30959080  0.49334700     0.03600
C595        C  0.18374818  0.33625443  0.49674516    -0.25200
H596        H  0.30598920  0.47612817  0.50999718     0.08700
H597        H  0.27236530  0.39567677  0.50229201     0.12300
H598        H  0.17283649  0.46218397  0.51194401     0.12200
H599        H  0.10600432  0.38816496  0.50521612     0.11900
H600        H  0.07271498  0.30888419  0.49441434     0.12500
H601        H  0.20533069  0.32183590  0.49391276     0.14400
C602        C  0.54062509  0.69058738  0.48848537    -0.05600
C603        C  0.52433593  0.64485230  0.49362742    -0.05500
C604        C  0.48014421  0.61756352  0.50134837    -0.23700
C605        C  0.45171618  0.63576702  0.50429808     0.18500
C606        C  0.46833575  0.68208077  0.49979931     0.15800
C607        C  0.51250182  0.70910145  0.49169832    -0.18700
C608        C  0.44034487  0.70055950  0.50320440    -0.20500
C609        C  0.39566467  0.67304503  0.51004099    -0.13100
C610        C  0.37795632  0.62643000  0.51340565     0.03600
C611        C  0.40663621  0.60820298  0.51108779    -0.25200
H612        H  0.54564643  0.62995596  0.49133876     0.08700
H613        H  0.46814570  0.58230590  0.50481562     0.12300
H614        H  0.52505918  0.74443872  0.48810039     0.12200
H615        H  0.45264717  0.73599035  0.50009529     0.11900
H616        H  0.37450638  0.68822693  0.51179609     0.12500
H617        H  0.39362878  0.57253341  0.51383014     0.14400
C618        C  0.23093717  0.61442023  0.51912257    -0.05600
C619        C  0.24841700  0.65516139  0.53141276    -0.05500
C620        C  0.23246030  0.68494671  0.52707461    -0.23700
C621        C  0.19894228  0.67466676  0.51016864     0.18500
C622        C  0.17913352  0.63254590  0.49862920     0.15800
C623        C  0.19496277  0.60235577  0.50336843    -0.18700
C624        C  0.14527157  0.62230748  0.48182286    -0.20500
C625        C  0.13187921  0.65381585  0.47624656    -0.13100
C626        C  0.15267311  0.69614432  0.48707209     0.03600
C627        C  0.18584848  0.70636477  0.50417158    -0.25200
H628        H  0.27623689  0.66504468  0.54362836     0.08700
H629        H  0.24760654  0.71672781  0.53623200     0.12300
H630        H  0.18178162  0.57134520  0.49361287     0.12200
H631        H  0.12960824  0.59031235  0.47284738     0.11900
H632        H  0.10578640  0.64549570  0.46315213     0.12500
H633        H  0.20127992  0.73880208  0.51273938     0.14400
C634        C  0.03783431  0.38071697  0.35865429    -0.05600
C635        C  0.06622092  0.36682810  0.34847747    -0.05500
C636        C  0.07142841  0.33214783  0.35827920    -0.23700
C637        C  0.04842302  0.31051010  0.37853224     0.18500
C638        C  0.01922552  0.32353192  0.38877529     0.15800
C639        C  0.01408223  0.35842846  0.37880009    -0.18700
C640        C  0.99607717  0.30174772  0.40898154    -0.20500
C641        C  0.00240243  0.26802341  0.41917299    -0.13100
C642        C  0.03205386  0.25530135  0.40942356     0.03600
C643        C  0.05468765  0.27659387  0.38889299    -0.25200
H644        H  0.08533751  0.38352798  0.33315517     0.08700
H645        H  0.09395385  0.32264387  0.35015470     0.12300
H646        H  0.99150905  0.36814419  0.38669484     0.12200
H647        H  0.97348052  0.31118270  0.41708993     0.11900
H648        H  0.98466364  0.25248417  0.43500439     0.12500
H649        H  0.07766052  0.26725191  0.38113105     0.14400
C650        C  0.02691751  0.52175189  0.36901340    -0.05600
C651        C  0.00812403  0.50980168  0.39130742    -0.05500
C652        C  0.00829068  0.54204376  0.40619177    -0.23700
C653        C  0.02623349  0.58692377  0.39900717     0.18500
C654        C  0.04354396  0.59916189  0.37641956     0.15800
C655        C  0.04448357  0.56692280  0.36179020    -0.18700
C656        C  0.06025102  0.64369803  0.36889868    -0.20500
C657        C  0.06075888  0.67604135  0.38375756    -0.13100
C658        C  0.04535186  0.66482334  0.40659852     0.03600
C659        C  0.02775639  0.61990865  0.41407636    -0.25200
H660        H  0.99297269  0.47535429  0.39735852     0.08700
H661        H  0.99425252  0.53179590  0.42333151     0.12300
H662        H  0.05994355  0.57761574  0.34499346     0.12200
H663        H  0.07344762  0.65368595  0.35159192     0.11900
H664        H  0.07494158  0.71039918  0.37762599     0.12500
H665        H  0.01575704  0.61078029  0.43164315     0.14400
C666        C  0.02871174  0.46493736  0.28869449    -0.05600
C667        C  0.00119729  0.48039314  0.27846322    -0.05500
C668        C  0.00015532  0.48546198  0.25450054    -0.23700
C669        C  0.02611618  0.47460395  0.24009920     0.18500
C670        C  0.05383710  0.45886517  0.24997134     0.15800
C671        C  0.05526295  0.45446777  0.27418518    -0.18700
C672        C  0.07893392  0.44700848  0.23539030    -0.20500
C673        C  0.07535947  0.44929654  0.21128725    -0.13100
C674        C  0.04736494  0.46436408  0.20130198     0.03600
C675        C  0.02359845  0.47789354  0.21594492    -0.25200
H676        H  0.97966941  0.48787742  0.28895995     0.08700
H677        H  0.97838904  0.49717472  0.24720275     0.12300
H678        H  0.07707835  0.44301198  0.28168727     0.12200
H679        H  0.10036343  0.43482330  0.24259951     0.06800
H680        H  0.09377938  0.43836252  0.20043640     0.12500
H681        H  0.00131345  0.48890284  0.20855246     0.14400
C682        C  0.46951681  0.79013592  0.35420601    -0.05600
C683        C  0.48059222  0.75723667  0.34790947    -0.05500
C684        C  0.51567307  0.75459397  0.35921843    -0.23700
C685        C  0.54058176  0.78510852  0.37690814     0.18500
C686        C  0.52988302  0.81855191  0.38329392     0.15800
C687        C  0.49423220  0.82070573  0.37198468    -0.18700
C688        C  0.55496945  0.84915497  0.40091651    -0.20500
C689        C  0.58949410  0.84591138  0.41252254    -0.13100
C690        C  0.59987520  0.81226228  0.40660305     0.03600
C691        C  0.57560922  0.78233394  0.38849486    -0.25200
H692        H  0.46194188  0.73348040  0.33418663     0.08700
H693        H  0.52335961  0.72875157  0.35410360     0.12300
H694        H  0.48626048  0.84659545  0.37665002     0.12200
H695        H  0.54748287  0.87518162  0.40594759     0.11900
H696        H  0.60773889  0.86947578  0.42637703     0.12500
H697        H  0.58306477  0.75608312  0.38385227     0.14400
C698        C  0.22475729  0.81904539  0.40912522    -0.05600
C699        C  0.26906442  0.84223426  0.41835648    -0.05500
C700        C  0.30522272  0.84342630  0.40654480    -0.23700
C701        C  0.29796544  0.82148387  0.38520947     0.18500
C702        C  0.25370796  0.79810415  0.37566321     0.15800
C703        C  0.21739622  0.79693766  0.38767483    -0.18700
C704        C  0.24657693  0.77616542  0.35430831    -0.20500
C705        C  0.28282771  0.77722990  0.34257225    -0.13100
C706        C  0.32703886  0.80018090  0.35193903     0.03600
C707        C  0.33421518  0.82243335  0.37332342    -0.25200
H708        H  0.27580821  0.85922776  0.43488023     0.08700
H709        H  0.33893655  0.86142854  0.41417990     0.12300
H710        H  0.18341093  0.77862608  0.38036235     0.12200
H711        H  0.21284517  0.75790678  0.34671817     0.11900
H712        H  0.27608389  0.75929510  0.32633871     0.12500
H713        H  0.36814857  0.84086413  0.38067560     0.14400
C714        C  0.41167922  0.81114389  0.27859015    -0.05600
C715        C  0.45582755  0.83828448  0.27011081    -0.05500
C716        C  0.46362154  0.84565075  0.24647732    -0.23700
C717        C  0.42736570  0.82675969  0.23072841     0.18500
C718        C  0.38270359  0.79951388  0.23885241     0.15800
C719        C  0.37509847  0.79168080  0.26276112    -0.18700
C720        C  0.34650980  0.78136359  0.22291176    -0.20500
C721        C  0.35440263  0.79166066  0.19934732    -0.13100
C722        C  0.39869375  0.81971572  0.19126267     0.03600
C723        C  0.43510198  0.83608050  0.20705311    -0.25200
H724        H  0.48458461  0.85449678  0.28184360     0.08700
H725        H  0.49800700  0.86685886  0.24055661     0.12300
H726        H  0.34095579  0.77045479  0.26900376     0.12200
H727        H  0.31204321  0.76019742  0.22872189     0.11900
H728        H  0.32572083  0.77833787  0.18749479     0.12500
H729        H  0.46938085  0.85780371  0.20109078     0.14400
C730        C  0.76037395  0.78759425  0.61655776    -0.05600
C731        C  0.77823245  0.76478803  0.60407131    -0.05500
C732        C  0.77323476  0.76043978  0.57993623    -0.23700
C733        C  0.75060664  0.77911489  0.56774700     0.18500
C734        C  0.73510088  0.80435084  0.58001570     0.15800
C735        C  0.73987201  0.80824939  0.60411904    -0.18700
C736        C  0.71322915  0.82389073  0.56816110    -0.20500
C737        C  0.70447021  0.81656161  0.54457172    -0.13100
C738        C  0.71708192  0.78925355  0.53217696     0.03600
C739        C  0.74158448  0.77170276  0.54376870    -0.25200
H740        H  0.79539871  0.74953801  0.61297641     0.08700
H741        H  0.78611140  0.74157257  0.57089883     0.12300
H742        H  0.72517701  0.82538597  0.61320784     0.12200
H743        H  0.70168757  0.84386165  0.57725899     0.11900
H744        H  0.68633497  0.83134827  0.53617876     0.12500
H745        H  0.75193932  0.75100569  0.53444361     0.14400
C746        C  0.36986319  0.10596549  0.85993021    -0.05600
C747        C  0.40035018  0.09479422  0.87054454    -0.05500
C748        C  0.40822310  0.09958856  0.89446914    -0.23700
C749        C  0.38502009  0.11472652  0.90840762     0.18500
C750        C  0.35456679  0.12643629  0.89799402     0.15800
C751        C  0.34767575  0.12264679  0.87381580    -0.18700
C752        C  0.33058355  0.14047755  0.91203529    -0.20500
C753        C  0.33579677  0.14179272  0.93616637    -0.13100
C754        C  0.36579688  0.12991192  0.94691145     0.03600
C755        C  0.39100745  0.11728050  0.93261773    -0.25200
H756        H  0.41783996  0.08187386  0.86034076     0.08700
H757        H  0.43169097  0.09037675  0.90214879     0.12300
H758        H  0.32365744  0.13094535  0.86595304     0.12200
H759        H  0.30687616  0.14940660  0.90438949     0.11900
H760        H  0.31525555  0.15100399  0.94638312     0.12500
H761        H  0.41521618  0.10906499  0.94025911     0.14400
C762        C  0.46037303  0.21959983  0.76859825    -0.05600
C763        C  0.48509198  0.23252983  0.74794433    -0.05500
C764        C  0.52551426  0.27376448  0.74651231    -0.23700
C765        C  0.54181920  0.30261642  0.76572422     0.18500
C766        C  0.51698751  0.28977486  0.78649462     0.15800
C767        C  0.47660762  0.24859090  0.78777555    -0.18700
C768        C  0.53300023  0.31815355  0.80578913    -0.20500
C769        C  0.57355253  0.35886913  0.80465071    -0.13100
C770        C  0.59882972  0.37211160  0.78416589     0.03600
C771        C  0.58262308  0.34385383  0.76465208    -0.25200
H772        H  0.47324918  0.21075075  0.73291051     0.08700
H773        H  0.54406675  0.28298980  0.73044229     0.12300
H774        H  0.45794443  0.23908593  0.80382965     0.12200
H775        H  0.51431765  0.30873353  0.82182676     0.11900
H776        H  0.58523518  0.37992454  0.81995412     0.12500
H777        H  0.60193520  0.35359099  0.74880913     0.14400
C778        C  0.70544090  0.44818289  0.95496483    -0.05600
C779        C  0.66394275  0.43548618  0.94348474    -0.05500
C780        C  0.66146581  0.43661472  0.91926930    -0.23700
C781        C  0.70003332  0.44899919  0.90589932     0.18500
C782        C  0.74122757  0.45958036  0.91710378     0.15800
C783        C  0.74396159  0.46041866  0.94129776    -0.18700
C784        C  0.77951735  0.47000264  0.90395956    -0.20500
C785        C  0.77749562  0.47140604  0.87989538    -0.13100
C786        C  0.73755312  0.46364805  0.86852723     0.03600
C787        C  0.69858521  0.45189610  0.88160807    -0.25200
H788        H  0.63313458  0.42457878  0.95305817     0.08700
H789        H  0.62930521  0.42764383  0.91100276     0.12300
H790        H  0.77685901  0.47196576  0.94924765     0.12200
H791        H  0.81126994  0.47770278  0.91230745     0.11900
H792        H  0.80796473  0.48082155  0.87019897     0.12500
H793        H  0.66755155  0.44563522  0.87292885     0.14400
C794        C  0.70412151  0.56825454  0.74149773    -0.05600
C795        C  0.67440656  0.58383403  0.74755662    -0.05500
C796        C  0.67679027  0.62166421  0.73657096    -0.23700
C797        C  0.70924444  0.64492480  0.71944851     0.18500
C798        C  0.73895523  0.62924230  0.71312631     0.15800
C799        C  0.73607992  0.59112554  0.72403765    -0.18700
C800        C  0.77163678  0.65228028  0.69618885    -0.20500
C801        C  0.77473838  0.69034454  0.68544336    -0.13100
C802        C  0.74538041  0.70642400  0.69138041     0.03600
C803        C  0.71273397  0.68361291  0.70859906    -0.25200
H804        H  0.64974291  0.56719682  0.76107294     0.08700
H805        H  0.65369832  0.63306254  0.74168253     0.12300
H806        H  0.75966787  0.58005797  0.71931547     0.12200
H807        H  0.79488375  0.64092124  0.69127036     0.11900
H808        H  0.80051855  0.70755335  0.67248248     0.12500
H809        H  0.68975208  0.69547013  0.71323427     0.14400
C810        C  0.75713665  0.21877326  0.77547363    -0.05600
C811        C  0.72263617  0.21926660  0.76202895    -0.05500
C812        C  0.71850043  0.25780345  0.76083997    -0.23700
C813        C  0.74882845  0.29674673  0.77305303     0.18500
C814        C  0.78385040  0.29697710  0.78654509     0.15800
C815        C  0.78774791  0.25795961  0.78773454    -0.18700
C816        C  0.81427587  0.33622920  0.79862801    -0.20500
C817        C  0.80988713  0.37477019  0.79739322    -0.13100
C818        C  0.77486490  0.37467497  0.78417830     0.03600
C819        C  0.74449135  0.33538451  0.77200738    -0.25200
H820        H  0.69846980  0.18963234  0.75245303     0.08700
H821        H  0.69152286  0.25709293  0.75041825     0.12300
H822        H  0.81448356  0.25815320  0.79815489     0.12200
H823        H  0.84133230  0.33709510  0.80903898     0.11900
H824        H  0.83369434  0.40455467  0.80698472     0.12500
H825        H  0.71746263  0.33479948  0.76167147     0.14400
C826        C  0.45263057  0.04169940  0.78174607    -0.05600
C827        C  0.45570670  0.01578368  0.79992011    -0.05500
C828        C  0.49436930  0.01145038  0.80264917    -0.23700
C829        C  0.53036152  0.03242785  0.78703748     0.18500
C830        C  0.52706695  0.05783532  0.76849625     0.15800
C831        C  0.48863200  0.06262344  0.76611256    -0.18700
C832        C  0.56230683  0.07820699  0.75256973    -0.20500
C833        C  0.60061342  0.07362196  0.75494200    -0.13100
C834        C  0.60490194  0.04909231  0.77345192     0.03600
C835        C  0.56957654  0.02861325  0.78958271    -0.25200
H836        H  0.42851969  0.99947160  0.81225885     0.08700
H837        H  0.49611220  0.99173834  0.81694266     0.12300
H838        H  0.48665630  0.08246424  0.75192912     0.12200
H839        H  0.56031349  0.09780853  0.73828307     0.11900
H840        H  0.62751210  0.09027080  0.74247544     0.12500
H841        H  0.57250864  0.00969564  0.80394692     0.14400
C842        C  0.72282633  0.08745173  0.86541994    -0.05600
C843        C  0.70099903  0.04652425  0.87777227    -0.05500
C844        C  0.69899185  0.04608312  0.90180776    -0.23700
C845        C  0.71825649  0.08657577  0.91413644     0.18500
C846        C  0.73833350  0.12803178  0.90207535     0.15800
C847        C  0.74070755  0.12832205  0.87772068    -0.18700
C848        C  0.75656728  0.16834420  0.91467966    -0.20500
C849        C  0.75573569  0.16751916  0.93890956    -0.13100
C850        C  0.73753791  0.12639833  0.95112300     0.03600
C851        C  0.71852949  0.08601956  0.93837674    -0.25200
H852        H  0.68668330  0.01442278  0.86890052     0.08700
H853        H  0.68308236  0.01400918  0.91076598     0.12300
H854        H  0.75762970  0.16009478  0.86850537     0.12200
H855        H  0.77165778  0.20051040  0.90582486     0.11900
H856        H  0.76954403  0.19928461  0.94801430     0.12500
H857        H  0.70519063  0.05396162  0.94719064     0.14400
C858        C  0.75494730  0.85899668  0.69124347    -0.05600
C859        C  0.78757771  0.90379018  0.68594241    -0.05500
C860        C  0.78666758  0.94005339  0.69643019    -0.23700
C861        C  0.75299947  0.93238411  0.71245744     0.18500
C862        C  0.72001916  0.88759698  0.71802322     0.15800
C863        C  0.72127842  0.85120160  0.70746832    -0.18700
C864        C  0.68636631  0.88003785  0.73406499    -0.20500
C865        C  0.68584528  0.91638324  0.74477383    -0.13100
C866        C  0.71875356  0.96112476  0.73957905     0.03600
C867        C  0.75208082  0.96877082  0.72316250    -0.25200
H868        H  0.81408498  0.91080977  0.67367187     0.08700
H869        H  0.81232228  0.97410311  0.69199696     0.12300
H870        H  0.69560471  0.81691608  0.71150958     0.12200
H871        H  0.66070134  0.84600549  0.73851563     0.11900
H872        H  0.65982669  0.90939123  0.75734756     0.12500
H873        H  0.77785020  0.00296595  0.71903663     0.14400
C874        C  0.90860297  0.79028899  0.84751956    -0.05600
C875        C  0.93459701  0.76874482  0.84795734    -0.05500
C876        C  0.91454399  0.72287133  0.84282897    -0.23700
C877        C  0.86840853  0.69811696  0.83693554     0.18500
C878        C  0.84189939  0.71936228  0.83706943     0.15800
C879        C  0.86193497  0.76491126  0.84272513    -0.18700
C880        C  0.79606384  0.69520075  0.83071733    -0.20500
C881        C  0.77676388  0.65049105  0.82374590    -0.13100
C882        C  0.80286231  0.62910303  0.82333915     0.03600
C883        C  0.84855285  0.65287025  0.83030059    -0.25200
H884        H  0.97065120  0.78756301  0.85156095     0.08700
H885        H  0.93537214  0.70709173  0.84280945     0.12300
H886        H  0.84133271  0.78095858  0.84230694     0.12200
H887        H  0.77535568  0.71112213  0.83071398     0.11900
H888        H  0.74135948  0.63265156  0.81861761     0.12500
H889        H  0.86893119  0.63659847  0.82991921     0.14400
C890        C  0.04559185  0.93742326  0.84674768    -0.05600
C891        C  0.07233741  0.92022867  0.85592145    -0.05500
C892        C  0.11800196  0.94006160  0.85037773    -0.23700
C893        C  0.13737824  0.97696767  0.83531096     0.18500
C894        C  0.11112730  0.99548138  0.82663429     0.15800
C895        C  0.06556007  0.97606487  0.83275023    -0.18700
C896        C  0.13037396  0.03188696  0.81122469    -0.20500
C897        C  0.17506989  0.04936174  0.80419165    -0.13100
C898        C  0.20124750  0.03086774  0.81260172     0.03600
C899        C  0.18222887  0.99486306  0.82831714    -0.25200
H900        H  0.05751841  0.89046171  0.86677858     0.08700
H901        H  0.13773136  0.92558858  0.85723392     0.12300
H902        H  0.04502992  0.98923142  0.82537778     0.12200
H903        H  0.11067840  0.04637473  0.80434410     0.11900
H904        H  0.18904805  0.07721765  0.79207391     0.12500
H905        H  0.20209237  0.98031557  0.83490978     0.14400
C906        C  0.82613665  0.02241844  0.82105892    -0.05600
C907        C  0.87058034  0.05168166  0.82897697    -0.05500
C908        C  0.89927344  0.03489012  0.83498839    -0.23700
C909        C  0.88371041  0.98855893  0.83336760     0.18500
C910        C  0.83888401  0.95910059  0.82558171     0.15800
C911        C  0.81062343  0.97618540  0.81936539    -0.18700
C912        C  0.82277539  0.91284389  0.82412264    -0.20500
C913        C  0.85070988  0.89566052  0.83038605    -0.13100
C914        C  0.89549115  0.92441827  0.83805428     0.03600
C915        C  0.91196985  0.97105133  0.83941468    -0.25200
H916        H  0.88335942  0.08763346  0.83022623     0.08700
H917        H  0.93347235  0.05802961  0.84089027     0.12300
H918        H  0.77639438  0.95335413  0.81333500     0.12200
H919        H  0.78855209  0.88991664  0.81815838     0.11900
H920        H  0.83715054  0.85962201  0.82891698     0.12500
H921        H  0.94638517  0.99350737  0.84529240     0.14400
C922        C  0.96370988  0.70333508  0.69408668    -0.05600
C923        C  0.94230348  0.71663920  0.71032338    -0.05500
C924        C  0.91106447  0.68556176  0.72569730    -0.23700
C925        C  0.90067895  0.64054417  0.72515176     0.18500
C926        C  0.92026840  0.62607309  0.70818626     0.15800
C927        C  0.95170099  0.65769321  0.69260770    -0.18700
C928        C  0.90876130  0.58052414  0.70757734    -0.20500
C929        C  0.87850741  0.54986704  0.72371365    -0.13100
C930        C  0.86031793  0.56464540  0.74099114     0.03600
C931        C  0.87141443  0.60995164  0.74152887    -0.25200
H932        H  0.95103936  0.75162966  0.71158465     0.08700
H933        H  0.89586118  0.69702273  0.73842749     0.12300
H934        H  0.96835397  0.64734408  0.68014966     0.12200
H935        H  0.92321651  0.56864100  0.69465879     0.11900
H936        H  0.86985779  0.51486513  0.72295637     0.12500
H937        H  0.85658284  0.62126586  0.75457595     0.14400
C938        C  0.25672307  0.95239523  0.73945730    -0.05600
C939        C  0.26913174  0.93670712  0.72002164    -0.05500
C940        C  0.23600297  0.90598543  0.70469229    -0.23700
C941        C  0.18995674  0.89122574  0.70827025     0.18500
C942        C  0.17732485  0.90724640  0.72768251     0.15800
C943        C  0.21060271  0.93717927  0.74322527    -0.18700
C944        C  0.13158924  0.89335549  0.73120159    -0.20500
C945        C  0.09846258  0.86298074  0.71597025    -0.13100
C946        C  0.11026074  0.84575013  0.69692018     0.03600
C947        C  0.15629568  0.86059049  0.69292905    -0.25200
H948        H  0.30449633  0.94827425  0.71667535     0.08700
H949        H  0.24641460  0.89417309  0.68993451     0.12300
H950        H  0.20067619  0.94972872  0.75789517     0.12200
H951        H  0.12138775  0.90565786  0.74584566     0.11900
H952        H  0.06327329  0.85238840  0.71925202     0.12500
H953        H  0.16568738  0.84728328  0.67838694     0.14400
C954        C  0.04031772  0.77769966  0.61905541    -0.05600
C955        C  0.99994841  0.75718637  0.60571158    -0.05500
C956        C  0.00112350  0.75752031  0.58145514    -0.23700
C957        C  0.04264604  0.77909729  0.56989264     0.18500
C958        C  0.08320135  0.80127369  0.58305572     0.15800
C959        C  0.08184956  0.79989119  0.60731509    -0.18700
C960        C  0.12481073  0.82385338  0.57179189    -0.20500
C961        C  0.12653948  0.82286739  0.54776001    -0.13100
C962        C  0.08675551  0.79891463  0.53430589     0.03600
C963        C  0.04457054  0.77797308  0.54551654    -0.25200
H964        H  0.96720250  0.74092178  0.61392821     0.08700
H965        H  0.96952643  0.74075635  0.57175670     0.12300
H966        H  0.11353034  0.81519574  0.61692774     0.12200
H967        H  0.15621606  0.84155463  0.58159972     0.11900
H968        H  0.15953527  0.83979075  0.53975093     0.12500
H969        H  0.01359635  0.75950646  0.53544880     0.14400
C970        C  0.14703340  0.14505058  0.69204085    -0.05600
C971        C  0.16769404  0.17601260  0.71022712    -0.05500
C972        C  0.20453225  0.17833434  0.72245039    -0.23700
C973        C  0.22083387  0.14913024  0.71695094     0.18500
C974        C  0.20074831  0.11839434  0.69841958     0.15800
C975        C  0.16437590  0.11693275  0.68591312    -0.18700
C976        C  0.21642284  0.08862965  0.69316734    -0.20500
C977        C  0.25065835  0.08826390  0.70659820    -0.13100
C978        C  0.27027029  0.11794757  0.72541998     0.03600
C979        C  0.25575878  0.14904844  0.73017194    -0.25200
H980        H  0.15511722  0.19831269  0.71503889     0.08700
H981        H  0.21957235  0.20221867  0.73651896     0.12300
H982        H  0.14841964  0.09277018  0.67201408     0.12200
H983        H  0.20141348  0.06483713  0.67905876     0.11900
H984        H  0.26100272  0.06384701  0.70255546     0.12500
H985        H  0.27033745  0.17196924  0.74466460     0.14400
C986        C  0.99018137  0.12493287  0.69481890    -0.05600
C987        C  0.94605117  0.09392224  0.68710354    -0.05500
C988        C  0.90821068  0.09093184  0.69788205    -0.23700
C989        C  0.91366261  0.11860345  0.71681028     0.18500
C990        C  0.95770252  0.14896668  0.72526536     0.15800
C991        C  0.99573582  0.15208782  0.71416937    -0.18700
C992        C  0.96284953  0.17553737  0.74472871    -0.20500
C993        C  0.92470238  0.17137867  0.75591852    -0.13100
C994        C  0.88096364  0.14176191  0.74738832     0.03600
C995        C  0.87568166  0.11579561  0.72765233    -0.25200
H996        H  0.94074437  0.07197695  0.67252657     0.08700
H997        H  0.87476499  0.06703974  0.69142035     0.12300
H998        H  0.02943931  0.17621370  0.72022792     0.12200
H999        H  0.99619773  0.19881410  0.75151999     0.11900
H1000       H  0.92931318  0.19123104  0.77131400     0.12500
H1001       H  0.84199761  0.09209488  0.72135776     0.14400
C1002       C  0.06388620  0.14164885  0.61880190    -0.05600
C1003       C  0.04582741  0.16766341  0.60971287    -0.05500
C1004       C  0.04157555  0.17131954  0.58597096    -0.23700
C1005       C  0.05598595  0.14964068  0.57070597     0.18500
C1006       C  0.07517979  0.12408312  0.57938278     0.15800
C1007       C  0.07896697  0.12011315  0.60348985    -0.18700
C1008       C  0.09055327  0.10352667  0.56372651    -0.20500
C1009       C  0.08813523  0.10950682  0.53981312    -0.13100
C1010       C  0.06947906  0.13537360  0.53120367     0.03600
C1011       C  0.05258354  0.15441293  0.54685687    -0.25200
H1012       H  0.03501307  0.18548923  0.62106119     0.08700
H1013       H  0.02736181  0.19150636  0.57954728     0.12300
H1014       H  0.09298024  0.10000124  0.61028916     0.12200
H1015       H  0.10539285  0.08379002  0.56996725     0.11900
H1016       H  0.10167499  0.09470349  0.52809140     0.12500
H1017       H  0.03862315  0.17491389  0.54054344     0.14400
loop_ 
_geom_bond_atom_site_label_1 
_geom_bond_atom_site_label_2 
_geom_bond_distance 
_geom_bond_site_symmetry_2 
_ccdc_geom_bond_type 
C1            C2   1.403       .  A
C1            C6   1.405       .  A
C1         C1002   1.485       .  S
C2            C3   1.401       .  A
C2            H7   1.083   1_455  S
C3            C4   1.406       .  A
C3          C986   1.488   1_455  S
C4            C5   1.410       .  A
C4            H8   1.084       .  S
C5            C6   1.408       .  A
C5          C970   1.483       .  S
C6            H9   1.084       .  S
C10          C11   1.418       .  A
C10          C15   1.416       .  A
C10         C954   1.502       .  S
C11          C12   1.405       .  A
C11          H16   1.082       .  S
C12          C13   1.397       .  A
C12         C946   1.486       .  S
C13          C14   1.397       .  A
C13          H17   1.085       .  S
C14          C15   1.404       .  A
C14         C922   1.478   1_455  S
C15          H18   1.082   1_455  S
C19         C914   1.474       .  S
C19          N20   1.352       .  A
C19          N24   1.358       .  A
N20          C21   1.351       .  A
C21         C874   1.473       .  S
C21          N22   1.352       .  A
N22          C23   1.357       .  A
C23         C890   1.468   1_655  S
C23          N24   1.361       .  A
O25         Cr43   2.011       .  S
O25          C33   1.271       .  A
O26         Cr43   1.971       .  S
O26          C27   1.261       .  A
C27         C810   1.484       .  S
C27          O28   1.267       .  A
O28         Cr44   2.007       .  S
O29         Cr44   1.995       .  S
O29          C30   1.261       .  A
C30         C842   1.485       .  S
C30          O31   1.260       .  A
O31         Cr45   1.987       .  S
O32         Cr45   1.983       .  S
O32          C33   1.264       .  A
C33         C834   1.483       .  S
O34         Cr43   1.988       .  S
O34          C42   1.257   1_545  A
O35         Cr43   1.997       .  S
O35          C36   1.263       .  A
C36         C994   1.474       .  S
C36          O37   1.257       .  A
O37         Cr44   1.974       .  S
O38         Cr44   2.001       .  S
O38          C39   1.268       .  A
C39         C906   1.470       .  S
C39          O40   1.265       .  A
O40         Cr45   1.968       .  S
O41         Cr45   2.010   1_565  S
O41          C42   1.262       .  A
C42         C866   1.489       .  S
Cr43         O46   1.772       .  S
Cr44         O46   1.781       .  S
Cr45         O46   1.775       .  S
O47         Cr65   1.968       .  S
O47          C55   1.262       .  A
O48         Cr65   2.014       .  S
O48          C49   1.267       .  A
C49         C770   1.475       .  S
C49          O50   1.256       .  A
O50         Cr66   1.955       .  S
O51         Cr66   2.013       .  S
O51          C52   1.268       .  A
C52         C786   1.477       .  S
C52          O53   1.262       .  A
O53         Cr67   1.972       .  S
O54         Cr67   2.020       .  S
O54          C55   1.271       .  A
C55         C818   1.482       .  S
O56         Cr65   2.010       .  S
O56          C64   1.262       .  A
O57         Cr65   1.973       .  S
O57          C58   1.260       .  A
C58         C794   1.488       .  S
C58          O59   1.269       .  A
O59         Cr66   2.021       .  S
O60         Cr66   1.954       .  S
O60          C61   1.255       .  A
C61         C882   1.467       .  S
C61          O62   1.265       .  A
O62         Cr67   2.005       .  S
O63         Cr67   1.974       .  S
O63          C64   1.257       .  A
C64         C930   1.471       .  S
Cr65         O68   1.773       .  S
Cr66         O68   1.768       .  S
Cr67         O68   1.766       .  S
O69         Cr87   2.013       .  S
O69          C77   1.268       .  A
O70         Cr87   1.968       .  S
O70          C71   1.261       .  A
C71         C826   1.484       .  S
C71          O72   1.270       .  A
O72         Cr88   2.021       .  S
O73         Cr88   1.985       .  S
O73          C74   1.263       .  A
C74         C746   1.489       .  S
C74          O75   1.268       .  A
O75         Cr89   2.021       .  S
O76         Cr89   1.961       .  S
O76          C77   1.260       .  A
C77         C762   1.476       .  S
O78         Cr87   1.975       .  S
O78          C86   1.259       .  A
O79         Cr87   2.010       .  S
O79          C80   1.264   1_545  A
C80         C938   1.481       .  S
C80          O81   1.259       .  A
O81         Cr88   1.979   1_565  S
O82         Cr88   2.007       .  S
O82          C83   1.267       .  A
C83         C898   1.471       .  S
C83          O84   1.257       .  A
O84         Cr89   1.960       .  S
O85         Cr89   2.014       .  S
O85          C86   1.267       .  A
C86         C978   1.484       .  S
Cr87         O90   1.772       .  S
Cr88         O90   1.766       .  S
Cr89         O90   1.767       .  S
C91          C92   1.405       .  A
C91          C96   1.408       .  A
C91         C730   1.497       .  S
C92          C93   1.407       .  A
C92          H97   1.082       .  S
C93          C94   1.410       .  A
C93         C802   1.491       .  S
C94          C95   1.410       .  A
C94          H98   1.083       .  S
C95          C96   1.407       .  A
C95         C858   1.493       .  S
C96          H99   1.082       .  S
C100        C101   1.409       .  A
C100        C105   1.402       .  A
C100        C714   1.489       .  S
C101        C102   1.413       .  A
C101        H106   1.083       .  S
C102        C103   1.410       .  A
C102        C706   1.494       .  S
C103        C104   1.403       .  A
C103        H107   1.083       .  S
C104        C105   1.397       .  A
C104        C682   1.479       .  S
C105        H108   1.084       .  S
C109        C110   1.407       .  A
C109        C114   1.409       .  A
C109        C666   1.497       .  S
C110        C111   1.408       .  A
C110        H115   1.083       .  S
C111        C112   1.409       .  A
C111        C634   1.496       .  S
C112        C113   1.412       .  A
C112        H116   1.082       .  S
C113        C114   1.411       .  A
C113        C650   1.505       .  S
C114        H117   1.080       .  S
C118        C618   1.473       .  S
C118        N119   1.351       .  A
C118        N123   1.362       .  A
N119        C120   1.350       .  A
C120        C610   1.478       .  S
C120        N121   1.357       .  A
N121        C122   1.362       .  A
C122        C586   1.488       .  S
C122        N123   1.367       .  A
O124       Cr142   1.978       .  S
O124        C132   1.261       .  A
O125       Cr142   2.015       .  S
O125        C126   1.269       .  A
C126        C570   1.491       .  S
C126        O127   1.264       .  A
O127       Cr143   1.988       .  S
O128       Cr143   1.992       .  S
O128        C129   1.264       .  A
C129        C962   1.488       .  S
C129        O130   1.264       .  A
O130       Cr144   1.998       .  S
O131       Cr144   2.009       .  S
O131        C132   1.267       .  A
C132        C562   1.486   1_455  S
O133       Cr142   2.007       .  S
O133        C141   1.266       .  A
O134       Cr142   1.986       .  S
O134        C135   1.259       .  A
C135        C698   1.488       .  S
C135        O136   1.264       .  A
O136       Cr143   2.007       .  S
O137       Cr143   1.983       .  S
O137        C138   1.264       .  A
C138        C626   1.464       .  S
C138        O139   1.264       .  A
O139       Cr144   1.997       .  S
O140       Cr144   1.981       .  S
O140        C141   1.259       .  A
C141        C658   1.486       .  S
Cr142       O145   1.775       .  S
Cr143       O145   1.775       .  S
Cr144       O145   1.781       .  S
O146       Cr164   1.975       .  S
O146        C154   1.262       .  A
O147       Cr164   2.019       .  S
O147        C148   1.270   1_455  A
C148        C522   1.480       .  S
C148        O149   1.261       .  A
O149       Cr165   1.966   1_655  S
O150       Cr165   2.005       .  S
O150        C151   1.265       .  A
C151       C1010   1.480       .  S
C151        O152   1.257       .  A
O152       Cr166   1.976       .  S
O153       Cr166   2.025       .  S
O153        C154   1.270       .  A
C154        C578   1.491       .  S
O155       Cr164   2.015       .  S
O155        C163   1.265       .  A
O156       Cr164   1.987       .  S
O156        C157   1.261       .  A
C157        C642   1.490       .  S
C157        O158   1.266       .  A
O158       Cr165   2.012       .  S
O159       Cr165   1.962       .  S
O159        C160   1.260       .  A
C160        C594   1.480       .  S
C160        O161   1.272       .  A
O161       Cr166   2.027       .  S
O162       Cr166   1.954       .  S
O162        C163   1.254       .  A
C163        C538   1.474       .  S
Cr164       O167   1.776       .  S
Cr165       O167   1.771       .  S
Cr166       O167   1.773       .  S
O168       Cr186   2.016       .  S
O168        C176   1.270       .  A
O169       Cr186   1.986       .  S
O169        C170   1.261       .  A
C170        C554   1.486       .  S
C170        O171   1.265       .  A
O171       Cr187   2.002       .  S
O172       Cr187   2.004       .  S
O172        C173   1.266       .  A
C173        C738   1.486       .  S
C173        O174   1.263       .  A
O174       Cr188   1.986       .  S
O175       Cr188   1.965       .  S
O175        C176   1.260       .  A
C176        C530   1.480       .  S
O177       Cr186   1.986       .  S
O177        C185   1.260       .  A
O178       Cr186   2.016       .  S
O178        C179   1.268       .  A
C179        C506   1.489       .  S
C179        O180   1.262       .  A
O180       Cr187   1.984       .  S
O181       Cr187   1.994       .  S
O181        C182   1.264       .  A
C182        C602   1.470       .  S
C182        O183   1.263       .  A
O183       Cr188   1.979       .  S
O184       Cr188   1.998       .  S
O184        C185   1.261       .  A
C185        C690   1.481       .  S
Cr186       O189   1.773       .  S
Cr187       O189   1.770       .  S
Cr188       O189   1.768       .  S
C190        C191   1.420       .  A
C190        C195   1.410       .  A
C190        C498   1.503       .  S
C191        C192   1.413       .  A
C191        H196   1.082       .  S
C192        C193   1.404       .  A
C192        C514   1.496       .  S
C193        C194   1.399       .  A
C193        H197   1.084       .  S
C194        C195   1.398       .  A
C194        C546   1.487       .  S
C195        H198   1.080       .  S
C199        C200   1.407       .  A
C199        C204   1.409       .  A
C199        C850   1.496       .  S
C200        C201   1.406   1_556  A
C200        H205   1.081       .  S
C201        C202   1.405       .  A
C201        C474   1.489       .  S
C202        C203   1.402       .  A
C202        H206   1.083       .  S
C203        C204   1.405   1_554  A
C203        C466   1.486       .  S
C204        H207   1.082       .  S
C208        C209   1.416       .  A
C208        C213   1.410       .  A
C208        C778   1.504       .  S
C209        C210   1.412   1_556  A
C209        H214   1.080       .  S
C210        C211   1.408       .  A
C210        C426   1.497       .  S
C211        C212   1.399       .  A
C211        H215   1.083       .  S
C212        C213   1.398   1_554  A
C212        C442   1.483       .  S
C213        H216   1.081       .  S
C217        C386   1.488       .  S
C217        N218   1.355       .  A
C217        N222   1.364       .  A
N218        C219   1.351       .  A
C219        C402   1.482       .  S
C219        N220   1.357       .  A
N220        C221   1.362       .  A
C221        C418   1.487       .  S
C221        N222   1.368       .  A
O223       Cr241   2.015       .  S
O223        C231   1.271       .  A
O224       Cr241   1.949       .  S
O224        C225   1.257       .  A
C225        C346   1.487       .  S
C225        O226   1.275       .  A
O226       Cr242   2.044       .  S
O227       Cr242   1.978       .  S
O227        C228   1.258       .  A
C228        C674   1.486       .  S
C228        O229   1.267       .  A
O229       Cr243   2.016       .  S
O230       Cr243   1.973       .  S
O230        C231   1.263       .  A
C231        C370   1.480       .  S
O232       Cr241   1.966   1_655  S
O232        C240   1.255       .  A
O233       Cr241   2.010   1_655  S
O233        C234   1.264       .  A
C234        C482   1.476       .  S
C234        O235   1.253       .  A
O235       Cr242   1.957   1_655  S
O236       Cr242   2.039   1_655  S
O236        C237   1.275       .  A
C237        C410   1.488       .  S
C237        O238   1.260       .  A
O238       Cr243   1.958   1_655  S
O239       Cr243   2.020   1_655  S
O239        C240   1.267       .  A
C240        C450   1.481       .  S
Cr241       O244   1.770       .  S
Cr242       O244   1.770       .  S
Cr243       O244   1.770       .  S
O245       Cr263   2.015       .  S
O245        C253   1.267       .  A
O246       Cr263   1.961       .  S
O246        C247   1.258       .  A
C247        C362   1.474       .  S
C247        O248   1.270       .  A
O248       Cr264   2.020       .  S
O249       Cr264   1.969       .  S
O249        C250   1.260       .  A
C250        C722   1.481       .  S
C250        O251   1.272       .  A
O251       Cr265   2.020       .  S
O252       Cr265   1.954       .  S
O252        C253   1.255       .  A
C253        C322   1.471       .  S
O254       Cr263   1.957       .  S
O254        C262   1.257       .  A
O255       Cr263   2.013       .  S
O255        C256   1.266       .  A
C256        C338   1.478       .  S
C256        O257   1.260       .  A
O257       Cr264   1.980       .  S
O258       Cr264   2.022       .  S
O258        C259   1.267       .  A
C259        C394   1.481       .  S
C259        O260   1.255       .  A
O260       Cr265   1.960       .  S
O261       Cr265   2.021       .  S
O261        C262   1.270       .  A
C262        C458   1.480       .  S
Cr263       O266   1.773       .  S
Cr264       O266   1.767       .  S
Cr265       O266   1.766       .  S
O267       Cr285   2.021       .  S
O267        C275   1.269       .  A
O268       Cr285   1.953       .  S
O268        C269   1.253       .  A
C269        C314   1.477       .  S
C269        O270   1.269       .  A
O270       Cr286   2.023       .  S
O271       Cr286   1.968       .  S
O271        C272   1.261       .  A
C272        C490   1.479       .  S
C272        O273   1.274       .  A
O273       Cr287   2.032       .  S
O274       Cr287   1.968       .  S
O274        C275   1.258       .  A
C275        C354   1.486       .  S
O276       Cr285   1.941       .  S
O276        C284   1.252       .  A
O277       Cr285   2.028       .  S
O277        C278   1.269       .  A
C278        C434   1.482       .  S
C278        O279   1.256       .  A
O279       Cr286   1.960       .  S
O280       Cr286   2.010       .  S
O280        C281   1.265       .  A
C281        C378   1.476       .  S
C281        O282   1.261       .  A
O282       Cr287   1.974       .  S
O283       Cr287   2.050       .  S
O283        C284   1.274       .  A
C284        C298   1.491       .  S
Cr285       O288   1.772       .  S
Cr286       O288   1.774       .  S
Cr287       O288   1.773       .  S
C289        C290   1.414       .  A
C289        C294   1.419       .  A
C289        C754   1.505       .  S
C290        C291   1.403   1_556  A
C290        H295   1.082       .  S
C291        C292   1.398       .  A
C291        C330   1.482       .  S
C292        C293   1.400       .  A
C292        H296   1.084       .  S
C293        C294   1.413   1_554  A
C293        C306   1.497       .  S
C294        H297   1.081       .  S
C298        C299   1.413       .  A
C298        C303   1.407       .  A
C299        C300   1.392       .  A
C299        H308   1.083       .  S
C300        C301   1.396       .  A
C300        H309   1.084       .  S
C301        C307   1.407       .  A
C301        C302   1.417       .  A
C302        C304   1.400       .  A
C302        C303   1.414       .  A
C303        H310   1.084       .  S
C304        C305   1.400       .  A
C304        H311   1.084       .  S
C305        C306   1.412       .  A
C305        H312   1.083       .  S
C306        C307   1.404       .  A
C307        H313   1.084       .  S
C314        C315   1.409       .  A
C314        C319   1.402       .  A
C315        C316   1.396       .  A
C315        H324   1.083       .  S
C316        C317   1.400       .  A
C316        H325   1.085       .  S
C317        C323   1.404       .  A
C317        C318   1.416       .  A
C318        C320   1.399       .  A
C318        C319   1.402       .  A
C319        H326   1.086       .  S
C320        C321   1.393       .  A
C320        H327   1.085       .  S
C321        C322   1.405       .  A
C321        H328   1.083       .  S
C322        C323   1.403       .  A
C323        H329   1.086       .  S
C330        C331   1.406       .  A
C330        C335   1.406       .  A
C331        C332   1.395       .  A
C331        H340   1.083       .  S
C332        C333   1.400       .  A
C332        H341   1.084       .  S
C333        C339   1.403   1_545  A
C333        C334   1.415   1_545  A
C334        C336   1.404       .  A
C334        C335   1.408   1_565  A
C335        H342   1.085       .  S
C336        C337   1.401       .  A
C336        H343   1.084       .  S
C337        C338   1.405       .  A
C337        H344   1.083       .  S
C338        C339   1.405       .  A
C339        H345   1.085       .  S
C346        C347   1.410       .  A
C346        C351   1.407       .  A
C347        C348   1.394       .  A
C347        H356   1.083       .  S
C348        C349   1.397       .  A
C348        H357   1.084       .  S
C349        C355   1.406       .  A
C349        C350   1.416       .  A
C350        C352   1.402       .  A
C350        C351   1.413       .  A
C351        H358   1.084       .  S
C352        C353   1.401       .  A
C352        H359   1.083       .  S
C353        C354   1.409       .  A
C353        H360   1.083       .  S
C354        C355   1.405       .  A
C355        H361   1.084       .  S
C362        C363   1.404       .  A
C362        C367   1.405       .  A
C363        C364   1.399       .  A
C363        H372   1.083       .  S
C364        C365   1.404       .  A
C364        H373   1.084       .  S
C365        C371   1.405       .  A
C365        C366   1.414       .  A
C366        C368   1.401       .  A
C366        C367   1.402       .  A
C367        H374   1.085       .  S
C368        C369   1.396       .  A
C368        H375   1.084       .  S
C369        C370   1.406       .  A
C369        H376   1.083       .  S
C370        C371   1.408       .  A
C371        H377   1.084       .  S
C378        C379   1.406       .  A
C378        C383   1.401       .  A
C379        C380   1.403       .  A
C379        H388   1.083       .  S
C380        C381   1.405       .  A
C380        H389   1.083       .  S
C381        C387   1.412       .  A
C381        C382   1.415       .  A
C382        C384   1.396       .  A
C382        C383   1.401       .  A
C383        H390   1.084       .  S
C384        C385   1.391       .  A
C384        H391   1.083       .  S
C385        C386   1.410       .  A
C385        H392   1.083       .  S
C386        C387   1.410       .  A
C387        H393   1.083       .  S
C394        C395   1.408   1_565  A
C394        C399   1.405   1_565  A
C395        C396   1.395       .  A
C395        H404   1.084   1_545  S
C396        C397   1.399       .  A
C396        H405   1.083       .  S
C397        C403   1.404       .  A
C397        C398   1.415       .  A
C398        C400   1.400       .  A
C398        C399   1.406       .  A
C399        H406   1.083   1_545  S
C400        C401   1.396       .  A
C400        H407   1.082       .  S
C401        C402   1.408       .  A
C401        H408   1.084       .  S
C402        C403   1.405       .  A
C403        H409   1.083       .  S
C410        C411   1.410       .  A
C410        C415   1.407       .  A
C411        C412   1.395       .  A
C411        H420   1.083       .  S
C412        C413   1.399       .  A
C412        H421   1.084       .  S
C413        C419   1.407       .  A
C413        C414   1.415       .  A
C414        C416   1.402       .  A
C414        C415   1.411       .  A
C415        H422   1.084       .  S
C416        C417   1.400       .  A
C416        H423   1.084       .  S
C417        C418   1.409       .  A
C417        H424   1.083       .  S
C418        C419   1.405       .  A
C419        H425   1.084       .  S
C426        C427   1.409       .  A
C426        C431   1.414       .  A
C427        C428   1.393       .  A
C427        H436   1.082       .  S
C428        C429   1.398       .  A
C428        H437   1.084       .  S
C429        C435   1.400       .  A
C429        C430   1.412       .  A
C430        C432   1.408       .  A
C430        C431   1.411       .  A
C431        H438   1.083       .  S
C432        C433   1.405       .  A
C432        H439   1.083       .  S
C433        C434   1.404       .  A
C433        H440   1.083       .  S
C434        C435   1.406       .  A
C435        H441   1.085       .  S
C442        C443   1.405       .  A
C442        C447   1.406       .  A
C443        C444   1.397       .  A
C443        H452   1.083       .  S
C444        C445   1.402       .  A
C444        H453   1.084       .  S
C445        C451   1.402       .  A
C445        C446   1.413       .  A
C446        C448   1.403       .  A
C446        C447   1.405       .  A
C447        H454   1.084       .  S
C448        C449   1.399       .  A
C448        H455   1.083       .  S
C449        C450   1.405       .  A
C449        H456   1.083       .  S
C450        C451   1.408       .  A
C451        H457   1.084       .  S
C458        C459   1.408       .  A
C458        C463   1.406       .  A
C459        C460   1.393       .  A
C459        H468   1.083       .  S
C460        C461   1.398       .  A
C460        H469   1.084       .  S
C461        C467   1.401   1_565  A
C461        C462   1.414       .  A
C462        C464   1.402       .  A
C462        C463   1.407       .  A
C463        H470   1.084       .  S
C464        C465   1.399   1_565  A
C464        H471   1.083       .  S
C465        C466   1.407       .  A
C465        H472   1.083       .  S
C466        C467   1.404       .  A
C467        H473   1.084       .  S
C474        C475   1.408       .  A
C474        C479   1.407       .  A
C475        C476   1.397       .  A
C475        H484   1.083   1_554  S
C476        C477   1.401       .  A
C476        H485   1.082       .  S
C477        C483   1.405       .  A
C477        C478   1.414       .  A
C478        C480   1.399       .  A
C478        C479   1.400       .  A
C479        H486   1.082       .  S
C480        C481   1.393       .  A
C480        H487   1.082       .  S
C481        C482   1.408       .  A
C481        H488   1.084       .  S
C482        C483   1.404       .  A
C483        H489   1.083       .  S
C490        C491   1.405       .  A
C490        C495   1.405       .  A
C491        C492   1.397       .  A
C491        H500   1.083       .  S
C492        C493   1.401       .  A
C492        H501   1.083       .  S
C493        C499   1.409       .  A
C493        C494   1.415       .  A
C494        C496   1.399       .  A
C494        C495   1.410       .  A
C495        H502   1.084       .  S
C496        C497   1.398       .  A
C496        H503   1.083       .  S
C497        C498   1.414       .  A
C497        H504   1.082       .  S
C498        C499   1.409       .  A
C499        H505   1.082       .  S
C506        C507   1.407       .  A
C506        C511   1.407       .  A
C507        C508   1.404       .  A
C507        H516   1.083       .  S
C508        C509   1.405       .  A
C508        H517   1.084       .  S
C509        C515   1.415       .  A
C509        C510   1.414       .  A
C510        C512   1.399       .  A
C510        C511   1.405       .  A
C511        H518   1.085       .  S
C512        C513   1.394       .  A
C512        H519   1.084       .  S
C513        C514   1.409       .  A
C513        H520   1.083       .  S
C514        C515   1.410       .  A
C515        H521   1.084       .  S
C522        C523   1.406       .  A
C522        C527   1.406       .  A
C523        C524   1.399   1_545  A
C523        H532   1.083       .  S
C524        C525   1.403       .  A
C524        H533   1.083       .  S
C525        C531   1.405       .  A
C525        C526   1.413   1_565  A
C526        C528   1.400   1_545  A
C526        C527   1.401       .  A
C527        H534   1.083       .  S
C528        C529   1.394       .  A
C528        H535   1.083   1_565  S
C529        C530   1.407       .  A
C529        H536   1.083       .  S
C530        C531   1.408       .  A
C531        H537   1.083       .  S
C538        C539   1.406       .  A
C538        C543   1.407       .  A
C539        C540   1.389       .  A
C539        H548   1.084       .  S
C540        C541   1.398       .  A
C540        H549   1.082       .  S
C541        C547   1.397       .  A
C541        C542   1.414       .  A
C542        C544   1.404       .  A
C542        C543   1.408       .  A
C543        H550   1.082       .  S
C544        C545   1.402       .  A
C544        H551   1.082       .  S
C545        C546   1.408       .  A
C545        H552   1.083       .  S
C546        C547   1.404       .  A
C547        H553   1.083       .  S
C554        C555   1.407       .  A
C554        C559   1.409       .  A
C555        C556   1.396       .  A
C555        H564   1.083       .  S
C556        C557   1.400       .  A
C556        H565   1.083       .  S
C557        C563   1.405       .  A
C557        C558   1.414       .  A
C558        C560   1.403       .  A
C558        C559   1.408       .  A
C559        H566   1.083       .  S
C560        C561   1.400       .  A
C560        H567   1.083       .  S
C561        C562   1.408       .  A
C561        H568   1.084       .  S
C562        C563   1.407       .  A
C563        H569   1.083       .  S
C570        C571   1.407       .  A
C570        C575   1.408       .  A
C571        C572   1.404   1_565  A
C571        H580   1.082       .  S
C572        C573   1.405       .  A
C572        H581   1.085       .  S
C573        C579   1.413       .  A
C573        C574   1.414   1_545  A
C574        C576   1.401       .  A
C574        C575   1.407       .  A
C575        H582   1.086       .  S
C576        C577   1.397   1_565  A
C576        H583   1.085       .  S
C577        C578   1.407       .  A
C577        H584   1.082       .  S
C578        C579   1.411       .  A
C579        H585   1.085       .  S
C586        C587   1.410       .  A
C586        C591   1.407       .  A
C587        C588   1.398       .  A
C587        H596   1.083       .  S
C588        C589   1.401       .  A
C588        H597   1.084       .  S
C589        C595   1.407       .  A
C589        C590   1.415       .  A
C590        C592   1.401       .  A
C590        C591   1.406       .  A
C591        H598   1.084       .  S
C592        C593   1.396       .  A
C592        H599   1.083       .  S
C593        C594   1.406       .  A
C593        H600   1.083       .  S
C594        C595   1.405       .  A
C595        H601   1.084       .  S
C602        C603   1.406       .  A
C602        C607   1.401       .  A
C603        C604   1.395       .  A
C603        H612   1.084       .  S
C604        C605   1.400       .  A
C604        H613   1.081       .  S
C605        C611   1.402       .  A
C605        C606   1.415       .  A
C606        C608   1.398       .  A
C606        C607   1.400       .  A
C607        H614   1.082       .  S
C608        C609   1.393       .  A
C608        H615   1.082       .  S
C609        C610   1.409       .  A
C609        H616   1.084       .  S
C610        C611   1.404       .  A
C611        H617   1.082       .  S
C618        C619   1.406       .  A
C618        C623   1.404       .  A
C619        C620   1.393       .  A
C619        H628   1.085       .  S
C620        C621   1.399       .  A
C620        H629   1.081       .  S
C621        C627   1.403       .  A
C621        C622   1.417       .  A
C622        C624   1.403       .  A
C622        C623   1.407       .  A
C623        H630   1.082       .  S
C624        C625   1.398       .  A
C624        H631   1.082       .  S
C625        C626   1.403       .  A
C625        H632   1.085       .  S
C626        C627   1.399       .  A
C627        H633   1.082       .  S
C634        C635   1.408       .  A
C634        C639   1.410       .  A
C635        C636   1.399       .  A
C635        H644   1.083       .  S
C636        C637   1.402       .  A
C636        H645   1.084       .  S
C637        C643   1.409       .  A
C637        C638   1.413       .  A
C638        C640   1.403   1_455  A
C638        C639   1.409       .  A
C639        H646   1.084   1_455  S
C640        C641   1.400   1_655  A
C640        H647   1.084       .  S
C641        C642   1.408       .  A
C641        H648   1.083   1_455  S
C642        C643   1.409       .  A
C643        H649   1.084       .  S
C650        C651   1.411       .  A
C650        C655   1.413       .  A
C651        C652   1.401       .  A
C651        H660   1.082   1_455  S
C652        C653   1.402       .  A
C652        H661   1.083   1_455  S
C653        C659   1.410       .  A
C653        C654   1.412       .  A
C654        C656   1.403       .  A
C654        C655   1.407       .  A
C655        H662   1.082       .  S
C656        C657   1.398       .  A
C656        H663   1.083       .  S
C657        C658   1.406       .  A
C657        H664   1.083       .  S
C658        C659   1.410       .  A
C659        H665   1.084       .  S
C666        C667   1.408       .  A
C666        C671   1.412       .  A
C667        C668   1.397       .  A
C667        H676   1.082   1_455  S
C668        C669   1.401       .  A
C668        H677   1.083   1_455  S
C669        C675   1.405       .  A
C669        C670   1.412       .  A
C670        C672   1.405       .  A
C670        C671   1.409       .  A
C671        H678   1.083       .  S
C672        C673   1.402       .  A
C672        H679   1.083       .  S
C673        C674   1.407       .  A
C673        H680   1.083       .  S
C674        C675   1.408       .  A
C675        H681   1.084       .  S
C682        C683   1.405       .  A
C682        C687   1.404       .  A
C683        C684   1.396       .  A
C683        H692   1.083       .  S
C684        C685   1.401       .  A
C684        H693   1.083       .  S
C685        C691   1.404       .  A
C685        C686   1.415       .  A
C686        C688   1.401       .  A
C686        C687   1.405       .  A
C687        H694   1.084       .  S
C688        C689   1.397       .  A
C688        H695   1.083       .  S
C689        C690   1.407       .  A
C689        H696   1.083       .  S
C690        C691   1.405       .  A
C691        H697   1.084       .  S
C698        C699   1.407       .  A
C698        C703   1.410       .  A
C699        C700   1.398       .  A
C699        H708   1.082       .  S
C700        C701   1.402       .  A
C700        H709   1.085       .  S
C701        C707   1.406       .  A
C701        C702   1.413       .  A
C702        C704   1.403       .  A
C702        C703   1.409       .  A
C703        H710   1.085       .  S
C704        C705   1.400       .  A
C704        H711   1.085       .  S
C705        C706   1.408       .  A
C705        H712   1.082       .  S
C706        C707   1.409       .  A
C707        H713   1.085       .  S
C714        C715   1.408       .  A
C714        C719   1.408       .  A
C715        C716   1.392       .  A
C715        H724   1.083       .  S
C716        C717   1.398       .  A
C716        H725   1.084       .  S
C717        C723   1.401       .  A
C717        C718   1.415       .  A
C718        C720   1.403       .  A
C718        C719   1.409       .  A
C719        H726   1.084       .  S
C720        C721   1.400       .  A
C720        H727   1.083       .  S
C721        C722   1.408       .  A
C721        H728   1.083       .  S
C722        C723   1.403       .  A
C723        H729   1.084       .  S
C730        C731   1.411       .  A
C730        C735   1.405       .  A
C731        C732   1.403       .  A
C731        H740   1.082       .  S
C732        C733   1.403       .  A
C732        H741   1.084       .  S
C733        C739   1.413       .  A
C733        C734   1.414       .  A
C734        C736   1.396       .  A
C734        C735   1.400       .  A
C735        H742   1.083       .  S
C736        C737   1.389       .  A
C736        H743   1.084       .  S
C737        C738   1.410       .  A
C737        H744   1.083       .  S
C738        C739   1.409       .  A
C739        H745   1.084       .  S
C746        C747   1.406       .  A
C746        C751   1.411       .  A
C747        C748   1.400       .  A
C747        H756   1.083       .  S
C748        C749   1.404       .  A
C748        H757   1.084       .  S
C749        C755   1.409       .  A
C749        C750   1.412       .  A
C750        C752   1.403       .  A
C750        C751   1.410       .  A
C751        H758   1.084       .  S
C752        C753   1.402       .  A
C752        H759   1.084       .  S
C753        C754   1.410       .  A
C753        H760   1.082       .  S
C754        C755   1.414       .  A
C755        H761   1.083       .  S
C762        C763   1.406       .  A
C762        C767   1.403       .  A
C763        C764   1.399       .  A
C763        H772   1.083       .  S
C764        C765   1.403       .  A
C764        H773   1.084       .  S
C765        C771   1.404       .  A
C765        C766   1.414       .  A
C766        C768   1.398       .  A
C766        C767   1.397       .  A
C767        H774   1.084       .  S
C768        C769   1.391       .  A
C768        H775   1.084       .  S
C769        C770   1.407       .  A
C769        H776   1.083       .  S
C770        C771   1.406       .  A
C771        H777   1.084       .  S
C778        C779   1.412       .  A
C778        C783   1.412       .  A
C779        C780   1.403       .  A
C779        H788   1.081       .  S
C780        C781   1.403       .  A
C780        H789   1.084       .  S
C781        C787   1.409       .  A
C781        C782   1.411       .  A
C782        C784   1.401       .  A
C782        C783   1.400       .  A
C783        H790   1.081       .  S
C784        C785   1.393       .  A
C784        H791   1.084       .  S
C785        C786   1.404       .  A
C785        H792   1.083       .  S
C786        C787   1.408       .  A
C787        H793   1.084       .  S
C794        C795   1.407       .  A
C794        C799   1.408       .  A
C795        C796   1.404       .  A
C795        H804   1.084       .  S
C796        C797   1.405       .  A
C796        H805   1.082       .  S
C797        C803   1.412       .  A
C797        C798   1.413       .  A
C798        C800   1.401       .  A
C798        C799   1.404       .  A
C799        H806   1.083       .  S
C800        C801   1.395       .  A
C800        H807   1.083       .  S
C801        C802   1.407       .  A
C801        H808   1.084       .  S
C802        C803   1.410       .  A
C803        H809   1.082       .  S
C810        C811   1.407       .  A
C810        C815   1.409       .  A
C811        C812   1.395       .  A
C811        H820   1.084       .  S
C812        C813   1.400       .  A
C812        H821   1.082       .  S
C813        C819   1.402       .  A
C813        C814   1.413       .  A
C814        C816   1.404       .  A
C814        C815   1.407       .  A
C815        H822   1.082       .  S
C816        C817   1.400       .  A
C816        H823   1.082       .  S
C817        C818   1.406       .  A
C817        H824   1.084       .  S
C818        C819   1.407       .  A
C819        H825   1.082       .  S
C826        C827   1.406       .  A
C826        C831   1.406       .  A
C827        C828   1.403       .  A
C827        H836   1.083   1_545  S
C828        C829   1.405       .  A
C828        H837   1.083   1_545  S
C829        C835   1.410       .  A
C829        C830   1.414       .  A
C830        C832   1.400       .  A
C830        C831   1.402       .  A
C831        H838   1.084       .  S
C832        C833   1.394       .  A
C832        H839   1.083       .  S
C833        C834   1.406       .  A
C833        H840   1.083       .  S
C834        C835   1.410       .  A
C835        H841   1.083       .  S
C842        C843   1.409       .  A
C842        C847   1.409       .  A
C843        C844   1.391       .  A
C843        H852   1.083       .  S
C844        C845   1.397       .  A
C844        H853   1.083       .  S
C845        C851   1.401       .  A
C845        C846   1.413       .  A
C846        C848   1.402       .  A
C846        C847   1.411       .  A
C847        H854   1.083       .  S
C848        C849   1.401       .  A
C848        H855   1.083       .  S
C849        C850   1.411       .  A
C849        H856   1.082       .  S
C850        C851   1.407       .  A
C851        H857   1.082       .  S
C858        C859   1.408       .  A
C858        C863   1.409       .  A
C859        C860   1.399       .  A
C859        H868   1.083       .  S
C860        C861   1.402       .  A
C860        H869   1.083       .  S
C861        C867   1.408       .  A
C861        C862   1.414       .  A
C862        C864   1.403       .  A
C862        C863   1.410       .  A
C863        H870   1.083       .  S
C864        C865   1.401       .  A
C864        H871   1.083       .  S
C865        C866   1.407       .  A
C865        H872   1.083       .  S
C866        C867   1.409       .  A
C867        H873   1.083   1_565  S
C874        C875   1.406       .  A
C874        C879   1.404       .  A
C875        C876   1.396       .  A
C875        H884   1.082       .  S
C876        C877   1.401       .  A
C876        H885   1.084       .  S
C877        C883   1.399       .  A
C877        C878   1.413       .  A
C878        C880   1.399       .  A
C878        C879   1.393       .  A
C879        H886   1.085       .  S
C880        C881   1.390       .  A
C880        H887   1.085       .  S
C881        C882   1.405       .  A
C881        H888   1.083       .  S
C882        C883   1.403       .  A
C883        H889   1.085       .  S
C890        C891   1.405       .  A
C890        C895   1.403       .  A
C891        C892   1.392       .  A
C891        H900   1.083       .  S
C892        C893   1.399       .  A
C892        H901   1.084       .  S
C893        C899   1.397       .  A
C893        C894   1.414       .  A
C894        C896   1.400   1_565  A
C894        C895   1.399       .  A
C895        H902   1.085       .  S
C896        C897   1.394       .  A
C896        H903   1.084       .  S
C897        C898   1.406       .  A
C897        H904   1.083       .  S
C898        C899   1.402   1_545  A
C899        H905   1.085       .  S
C906        C907   1.407       .  A
C906        C911   1.399   1_545  A
C907        C908   1.397       .  A
C907        H916   1.083       .  S
C908        C909   1.402   1_545  A
C908        H917   1.083       .  S
C909        C915   1.403       .  A
C909        C910   1.415       .  A
C910        C912   1.395       .  A
C910        C911   1.395       .  A
C911        H918   1.084       .  S
C912        C913   1.388       .  A
C912        H919   1.083       .  S
C913        C914   1.408       .  A
C913        H920   1.083       .  S
C914        C915   1.405       .  A
C915        H921   1.083       .  S
C922        C923   1.405       .  A
C922        C927   1.406       .  A
C923        C924   1.391       .  A
C923        H932   1.083       .  S
C924        C925   1.398       .  A
C924        H933   1.086       .  S
C925        C931   1.399       .  A
C925        C926   1.416       .  A
C926        C928   1.405       .  A
C926        C927   1.409       .  A
C927        H934   1.086       .  S
C928        C929   1.402       .  A
C928        H935   1.085       .  S
C929        C930   1.404       .  A
C929        H936   1.082       .  S
C930        C931   1.401       .  A
C931        H937   1.087       .  S
C938        C939   1.405       .  A
C938        C943   1.406       .  A
C939        C940   1.402       .  A
C939        H948   1.083       .  S
C940        C941   1.405       .  A
C940        H949   1.082       .  S
C941        C947   1.409       .  A
C941        C942   1.414       .  A
C942        C944   1.400       .  A
C942        C943   1.403       .  A
C943        H950   1.084       .  S
C944        C945   1.394       .  A
C944        H951   1.083       .  S
C945        C946   1.406       .  A
C945        H952   1.084       .  S
C946        C947   1.408       .  A
C947        H953   1.083       .  S
C954        C955   1.412   1_455  A
C954        C959   1.409       .  A
C955        C956   1.403   1_655  A
C955        H964   1.082       .  S
C956        C957   1.403       .  A
C956        H965   1.083   1_455  S
C957        C963   1.413       .  A
C957        C958   1.413       .  A
C958        C960   1.398       .  A
C958        C959   1.403       .  A
C959        H966   1.082       .  S
C960        C961   1.392       .  A
C960        H967   1.084       .  S
C961        C962   1.409       .  A
C961        H968   1.083       .  S
C962        C963   1.410       .  A
C963        H969   1.084       .  S
C970        C971   1.405       .  A
C970        C975   1.405       .  A
C971        C972   1.399       .  A
C971        H980   1.084       .  S
C972        C973   1.403       .  A
C972        H981   1.082       .  S
C973        C979   1.406       .  A
C973        C974   1.414       .  A
C974        C976   1.401       .  A
C974        C975   1.405       .  A
C975        H982   1.083       .  S
C976        C977   1.397       .  A
C976        H983   1.082       .  S
C977        C978   1.407       .  A
C977        H984   1.084       .  S
C978        C979   1.408       .  A
C979        H985   1.083       .  S
C986        C987   1.408       .  A
C986        C991   1.408       .  A
C987        C988   1.395       .  A
C987        H996   1.084       .  S
C988        C989   1.400       .  A
C988        H997   1.081       .  S
C989        C995   1.404       .  A
C989        C990   1.414       .  A
C990        C992   1.404       .  A
C990        C991   1.408       .  A
C991        H998   1.081   1_655  S
C992        C993   1.401       .  A
C992        H999   1.081       .  S
C993        C994   1.404       .  A
C993       H1000   1.084       .  S
C994        C995   1.404       .  A
C995       H1001   1.082       .  S
C1002      C1003   1.406       .  A
C1002      C1007   1.410       .  A
C1003      C1004   1.389       .  A
C1003      H1012   1.083       .  S
C1004      C1005   1.397       .  A
C1004      H1013   1.084       .  S
C1005      C1011   1.397       .  A
C1005      C1006   1.414       .  A
C1006      C1008   1.405       .  A
C1006      C1007   1.410       .  A
C1007      H1014   1.084       .  S
C1008      C1009   1.403       .  A
C1008      H1015   1.083       .  S
C1009      C1010   1.407       .  A
C1009      H1016   1.083       .  S
C1010      C1011   1.403       .  A
C1011      H1017   1.084       .  S
