geometry optimzed in LAMMPS
_audit_creation_date              2020-11-30 
_audit_creation_method            'lammps2cif' 
_symmetry_space_group_name_H-M    'P1' 
_symmetry_Int_Tables_number       1 
_symmetry_cell_setting            triclinic 
loop_ 
_symmetry_equiv_pos_as_xyz 
  x,y,z 
_cell_length_a                    30.367103855846636 
_cell_length_b                    30.825041678687278 
_cell_length_c                    32.06434415173779 
_cell_angle_alpha                 88.28295339221535 
_cell_angle_beta                  90.12381421675998 
_cell_angle_gamma                 90.13984917143901 
loop_ 
_atom_site_label 
_atom_site_type_symbol 
_atom_site_fract_x 
_atom_site_fract_y 
_atom_site_fract_z 
_atom_site_charge 
C1          C  0.50704900  0.24343779  0.52153195     0.00500
C2          C  0.00533631  0.24035233  0.47967544     0.00490
C3          C  0.24348158  0.50140522  0.52072742     0.00500
C4          C  0.24414767  0.00388651  0.47852638     0.00490
C5          C  0.13464351  0.27148528  0.64576862     0.42390
N6          N  0.16181649  0.24974569  0.70420547     0.01280
C7          C  0.33140163  0.33565770  0.81929038    -0.06600
H8          H  0.34738318  0.33737556  0.64924478     0.06770
C9          C  0.35330291  0.17727657  0.67151830    -0.06950
Co10       Co  0.21742528  0.31529635  0.74822987     0.74180
N11         N  0.29841477  0.32431668  0.69729374    -0.26130
Co12       Co  0.32344377  0.28093871  0.74351854     0.74070
C13         C  0.37563172  0.21350398  0.64872706     0.42490
N14         N  0.24631303  0.15059041  0.70795113     0.00890
N15         N  0.33975959  0.23808050  0.69995328     0.01000
N16         N  0.26168840  0.35897844  0.82880278    -0.46970
H17         H  0.16226955  0.34075361  0.65384564     0.06760
N18         N  0.25759255  0.33755814  0.70116505     0.01290
N19         N  0.34712804  0.23775171  0.78974043     0.01030
C20         C  0.38222998  0.20881448  0.84099234     0.42630
N21         N  0.20504760  0.16347467  0.70543876    -0.25580
C22         C  0.15568854  0.31522496  0.82126204    -0.06500
N23         N  0.13872537  0.23732027  0.67209441    -0.46690
N24         N  0.37939729  0.24500340  0.81652144    -0.46910
C25         C  0.12340507  0.28602914  0.83936695     0.42400
N26         N  0.26490151  0.33598978  0.79403897     0.01270
N27         N  0.20293323  0.16639582  0.79747917    -0.25600
N28         N  0.17375633  0.29097467  0.70196944    -0.26100
N29         N  0.24352494  0.15135481  0.79969475     0.00910
H30         H  0.14437818  0.15576005  0.83403140     0.06800
H31         H  0.34590706  0.14396530  0.83516869     0.06840
N32         N  0.30549918  0.32226382  0.78881728    -0.26150
N33         N  0.33129026  0.19612938  0.70301729    -0.25760
N34         N  0.15972498  0.25199409  0.79394816     0.01280
C35         C  0.27783846  0.36766899  0.64329366     0.42670
C36         C  0.18740570  0.14586352  0.67095849    -0.07010
N37         N  0.33088356  0.19817837  0.79419502    -0.25760
H38         H  0.35452930  0.14293607  0.66607011     0.06820
N39         N  0.24416306  0.36302029  0.66999692    -0.46980
H40         H  0.15418495  0.15069011  0.65971560     0.06810
C41         C  0.20867230  0.12152620  0.85193646     0.42510
C42         C  0.15723203  0.30798138  0.66571953    -0.06510
Co43       Co  0.18135918  0.20742098  0.75026531     0.73820
N44         N  0.25861045  0.12616197  0.67708610    -0.46700
C45         C  0.30300057  0.35924850  0.84626516     0.42780
N46         N  0.12675941  0.24732889  0.82087576    -0.46690
Co47       Co  0.28869479  0.17278535  0.75181414     0.73890
C48         C  0.35034606  0.17780216  0.82618429    -0.07020
C49         C  0.31472155  0.34240831  0.66153409    -0.06580
N50         N  0.17605824  0.29173435  0.79333781    -0.26110
N51         N  0.36507936  0.24936727  0.66856733    -0.46870
H52         H  0.36600105  0.32830492  0.82296270     0.06780
C53         C  0.17900533  0.14982370  0.82888036    -0.06990
Cl54       Cl  0.25259756  0.24400784  0.74881628    -0.49990
C55         C  0.22378538  0.12175889  0.65185098     0.42540
H56         H  0.15985135  0.34974922  0.82508898     0.06750
N57         N  0.24826202  0.12292434  0.83175297    -0.46700
C58         C  0.13383352  0.22554070  0.35308707     0.42390
N59         N  0.16091906  0.25088177  0.29606944     0.01280
C60         C  0.32467257  0.17027094  0.17129362    -0.06600
H61         H  0.34567545  0.16091305  0.34312852     0.06770
C62         C  0.35215116  0.31545641  0.33343857    -0.06950
Co63       Co  0.21429126  0.18764292  0.24709676     0.74180
N64         N  0.29672405  0.17498392  0.29532827    -0.26130
Co65       Co  0.32136195  0.22060672  0.25039149     0.74070
C66         C  0.37588195  0.27699035  0.35143586     0.42490
N67         N  0.24670726  0.34798096  0.29727856     0.00890
N68         N  0.34129723  0.25970957  0.29606971     0.01000
N69         N  0.25461465  0.14651483  0.16435046    -0.46970
H70         H  0.15895162  0.15654817  0.34000824     0.06760
N71         N  0.25555697  0.16236566  0.29179316     0.01290
N72         N  0.34363429  0.26657072  0.20609893     0.01030
C73         C  0.37041090  0.29743844  0.15159914     0.42630
N74         N  0.20487502  0.33668428  0.29817352    -0.25580
C75         C  0.14919744  0.19127642  0.17737268    -0.06500
N76         N  0.13829513  0.26138450  0.32904975    -0.46690
N77         N  0.37003873  0.25980556  0.17406089    -0.46910
C78         C  0.11401755  0.21990027  0.16430256     0.42400
N79         N  0.25956032  0.16903852  0.19920101     0.01270
N80         N  0.20155912  0.33869202  0.20685795    -0.25600
N81         N  0.17206326  0.20950504  0.29555256    -0.26100
N82         N  0.24227713  0.35381277  0.20563522     0.00910
H83         H  0.14280056  0.35190197  0.17123094     0.06800
H84         H  0.33805090  0.36261082  0.16548806     0.06840
N85         N  0.30042643  0.18267609  0.20322875    -0.26150
N86         N  0.33153070  0.30117218  0.29855308    -0.25760
N87         N  0.15557216  0.25339546  0.20660520     0.01280
C88         C  0.27608148  0.13093168  0.34909564     0.42670
C89         C  0.18649281  0.35536260  0.33150465    -0.07010
N90         N  0.32891221  0.30679394  0.20631544    -0.25760
H91         H  0.35064572  0.34806958  0.34486473     0.06820
N92         N  0.24216206  0.13657739  0.32272033    -0.46980
H93         H  0.15229977  0.35285136  0.34028865     0.06810
C94         C  0.20725516  0.38702511  0.15531697     0.42510
C95         C  0.15523954  0.19024354  0.33058920    -0.06510
Co96       Co  0.17984748  0.29536985  0.25185267     0.73820
N97         N  0.25870936  0.37238491  0.32831822    -0.46700
C98         C  0.29480701  0.14735581  0.14497386     0.42780
N99         N  0.11927084  0.25802548  0.18366885    -0.46690
Co100      Co  0.28823231  0.32878047  0.25176545     0.73890
C101        C  0.34420776  0.32876140  0.17317843    -0.07020
C102        C  0.31308263  0.15606116  0.33074683    -0.06580
N103        N  0.17210807  0.21400944  0.20423619    -0.26110
N104        N  0.36667493  0.24481435  0.32608151    -0.46870
H105        H  0.35934115  0.17687464  0.16681220     0.06780
C106        C  0.17753241  0.35734509  0.17659769    -0.06990
Cl107      Cl  0.25081389  0.25828191  0.25000308    -0.49990
C108        C  0.22296035  0.37839402  0.35187534     0.42540
H109        H  0.15271235  0.15681649  0.17284056     0.06750
N110        N  0.24700018  0.38419580  0.17526255    -0.46700
O111        O  0.04094117  0.39558403  0.97684963    -0.80210
O112        O  0.03444336  0.11085117  0.03039809    -0.80230
O113        O  0.05185599  0.02451772  0.92860488    -0.80240
O114        O  0.04737985  0.48120723  0.07735219    -0.80180
O115        O  0.07329838  0.04488096  0.99148939    -0.80300
O116        O  0.07417265  0.46413554  0.01569316    -0.80220
O117        O  0.01020668  0.06713182  0.08147039    -0.80210
O118        O  0.01813565  0.43761201  0.92395591    -0.80240
C119        C  0.03519695  0.40144279  0.93839997     1.09480
C120        C  0.02612182  0.10440818  0.06831218     1.09370
C121        C  0.08180370  0.03783496  0.95325887     1.09510
C122        C  0.07978850  0.47035625  0.05444827     1.09380
O123        O  0.51043728  0.41089302  0.04718515    -0.80210
O124        O  0.50991022  0.09555400  0.95808657    -0.80280
O125        O  0.43190406  0.47520112  0.93687895    -0.80220
O126        O  0.42696020  0.02683133  0.06201828    -0.80200
O127        O  0.44902041  0.08217688  0.02350618    -0.80250
O128        O  0.45416148  0.42112738  0.97732933    -0.80220
O129        O  0.45525221  0.44793606  0.06717944    -0.80180
O130        O  0.46051127  0.05607439  0.92886585    -0.80250
Co131      Co  0.01565411  0.44570776  0.99500733     1.51530
Co132      Co  0.01262719  0.06023205  0.00951105     1.51570
Co133      Co  0.99071923  0.49941390  0.93550183     1.51570
Co134      Co  0.98584953  0.00467215  0.06640380     1.51470
O135        O  0.99023569  0.00267483  0.00101227    -1.42140
C136        C  0.47424288  0.41216896  0.06483723     1.09410
C137        C  0.47945535  0.09194164  0.93259870     1.09500
C138        C  0.42455488  0.43856688  0.95350944     1.09440
C139        C  0.41896081  0.06330056  0.04580438     1.09410
C140        C  0.19110649  0.41971192  0.12394374    -0.05530
C141        C  0.16800480  0.45565956  0.13844771    -0.32960
C142        C  0.13414536  0.47531700  0.11451658     0.36290
C143        C  0.12302222  0.45944276  0.07491832    -0.05890
C144        C  0.14977948  0.42684690  0.05849121    -0.32860
C145        C  0.18317417  0.40683653  0.08276279     0.36190
H146        H  0.17294688  0.46563241  0.17024517     0.16560
O147        O  0.11056138  0.50854126  0.13112175    -0.60360
H148        H  0.14213416  0.41386837  0.02828338     0.16580
O149        O  0.20411421  0.37116145  0.06779439    -0.60460
H150        H  0.23242580  0.38231899  0.05640295     0.43570
H151        H  0.09045318  0.49448286  0.15181483     0.43530
C152        C  0.07334554  0.20273277  0.14682834    -0.05530
C153        C  0.06442691  0.21330466  0.10520670    -0.32960
C154        C  0.04471012  0.18274614  0.07992116     0.36290
C155        C  0.03461156  0.14062302  0.09644932    -0.05890
C156        C  0.03656654  0.13312952  0.13964330    -0.32860
C157        C  0.05559689  0.16424600  0.16502716     0.36190
H158        H  0.07747051  0.24300797  0.09104310     0.16560
O159        O  0.03928594  0.19316011  0.03833760    -0.60360
H160        H  0.02693612  0.10197941  0.15331982     0.16580
O161        O  0.06105732  0.15508665  0.20691986    -0.60460
H162        H  0.08247318  0.13085646  0.20895263     0.43570
H163        H  0.01273076  0.21180491  0.03689129     0.43530
C164        C  0.31062793  0.12593816  0.10670219    -0.05530
C165        C  0.31251395  0.08069737  0.10632767    -0.32960
C166        C  0.34467570  0.05964297  0.08267069     0.36290
C167        C  0.37615812  0.08395217  0.05846865    -0.05890
C168        C  0.37030642  0.12904420  0.05490283    -0.32860
C169        C  0.33780671  0.14987774  0.07840393     0.36190
H170        H  0.29234883  0.06160226  0.12787820     0.16560
O171        O  0.34695289  0.01518344  0.08603005    -0.60360
H172        H  0.39335839  0.14871162  0.03690658     0.16580
O173        O  0.33619775  0.19435275  0.07703677    -0.60460
H174        H  0.31261251  0.20179061  0.05663313     0.43570
H175        H  0.35975923  0.00858820  0.11401166     0.43530
C176        C  0.39998473  0.30963776  0.11776271    -0.05530
C177        C  0.44525755  0.31095448  0.12624073    -0.32960
C178        C  0.47160814  0.34237072  0.10616001     0.36290
C179        C  0.45191545  0.37243112  0.07814036    -0.05890
C180        C  0.40832457  0.36670693  0.06534235    -0.32860
C181        C  0.38232139  0.33500121  0.08473741     0.36190
H182        H  0.45892907  0.29165680  0.15192350     0.16560
O183        O  0.51468520  0.34711060  0.11814918    -0.60360
H184        H  0.39355114  0.38883072  0.04243827     0.16580
O185        O  0.33845933  0.33207137  0.07456413    -0.60460
H186        H  0.32442546  0.35827685  0.08582982     0.43570
H187        H  0.53162248  0.32796363  0.09978224     0.43530
C188        C  0.08603979  0.30207526  0.86251480    -0.05530
C189        C  0.06145397  0.33589496  0.84363234    -0.32960
C190        C  0.04263137  0.36794683  0.86777573     0.36290
C191        C  0.04776955  0.36560625  0.91136415    -0.05890
C192        C  0.06732798  0.32829351  0.93008104    -0.32860
C193        C  0.08652624  0.29676154  0.90589682     0.36190
H194        H  0.06124213  0.34020943  0.80995233     0.16560
O195        O  0.02169504  0.40237402  0.84833294    -0.60360
H196        H  0.07068185  0.32481174  0.96365745     0.16580
O197        O  0.11105489  0.26447987  0.92491675    -0.60460
H198        H  0.09098240  0.23911129  0.92727299     0.43570
H199        H  0.04545465  0.42317688  0.84048043     0.43530
C200        C  0.12560009  0.05009673  0.93482199    -0.05530
C201        C  0.14794541  0.08693657  0.94889294    -0.32960
C202        C  0.18076871  0.10749533  0.92433341     0.36290
C203        C  0.19262096  0.09096175  0.88535174    -0.05890
C204        C  0.17393326  0.05142289  0.87364247    -0.32860
C205        C  0.14082463  0.03102536  0.89792682     0.36190
H206        H  0.13695775  0.10245812  0.97689167     0.16560
O207        O  0.19721066  0.14667291  0.93634348    -0.60360
H208        H  0.18167922  0.03863169  0.84341906     0.16580
O209        O  0.12086599  0.99453492  0.88324432    -0.60460
H210        H  0.13451710  0.96994644  0.89913283     0.43570
H211        H  0.22474487  0.13953210  0.95171399     0.43530
C212        C  0.46506175  0.12999674  0.90880455    -0.05530
C213        C  0.46861277  0.13064813  0.86542190    -0.32960
C214        C  0.44766941  0.16316167  0.84182822     0.36290
C215        C  0.42185027  0.19398992  0.86206321    -0.05890
C216        C  0.42303892  0.19642796  0.90546767    -0.32860
C217        C  0.44526674  0.16470192  0.92904193     0.36190
H218        H  0.48532109  0.10465462  0.84987282     0.16560
O219        O  0.44811584  0.16176317  0.79904876    -0.60360
H220        H  0.40281642  0.21983137  0.92114264     0.16580
O221        O  0.44306998  0.16503837  0.97169051    -0.60460
H222        H  0.46942958  0.18151636  0.98034234     0.43570
H223        H  0.42820225  0.13752631  0.79187056     0.43530
C224        C  0.31979252  0.37748443  0.88605738    -0.05530
C225        C  0.34943867  0.35187318  0.91030094    -0.32960
C226        C  0.38074338  0.37062707  0.93693925     0.36290
C227        C  0.38309243  0.41603840  0.93989439    -0.05890
C228        C  0.34960784  0.44102865  0.91982902    -0.32860
C229        C  0.31861402  0.42223929  0.89286196     0.36190
H230        H  0.35127410  0.31727515  0.90544139     0.16560
O231        O  0.41226380  0.34468663  0.95543424    -0.60360
H232        H  0.34998986  0.47605389  0.92181737     0.16580
O233        O  0.29066749  0.44856105  0.86999141    -0.60460
H234        H  0.30774854  0.45815284  0.84502640     0.43570
H235        H  0.39763966  0.33090635  0.98008614     0.43530
C236        C  0.23725151  0.46499460  0.45316976    -0.05530
C237        C  0.19492052  0.45628154  0.43755810    -0.32960
C238        C  0.18864814  0.42586805  0.40632264     0.36290
C239        C  0.22521182  0.40414499  0.39011784    -0.05890
C240        C  0.26697467  0.41077834  0.40816057    -0.32860
C241        C  0.27311092  0.44086947  0.43936871     0.36190
H242        H  0.16696891  0.47469649  0.44814270     0.16560
O243        O  0.14749214  0.42053438  0.38960322    -0.60360
H244        H  0.29558835  0.39388059  0.39679203     0.16580
O245        O  0.31471471  0.44855358  0.45416666    -0.60460
H246        H  0.32038534  0.42482468  0.47503412     0.43570
H247        H  0.13272116  0.39892283  0.40838429     0.43530
C248        C  0.27081031  0.10614983  0.38928136    -0.05530
C249        C  0.22778351  0.09971959  0.40476935    -0.32960
C250        C  0.21901612  0.06952800  0.43710763     0.36290
C251        C  0.25345295  0.04499948  0.45471255    -0.05890
C252        C  0.29701223  0.05420905  0.44220905    -0.32860
C253        C  0.30590051  0.08478488  0.40983369     0.36190
H254        H  0.20022569  0.11657776  0.39037810     0.16560
O255        O  0.17630825  0.06180195  0.44899978    -0.60360
H256        H  0.32396158  0.03555505  0.45568199     0.16580
O257        O  0.34831433  0.09031375  0.39612739    -0.60460
H258        H  0.36079685  0.11337879  0.41356864     0.43570
H259        H  0.16855008  0.08624055  0.46699134     0.43530
C260        C  0.25445254  0.46044805  0.54414659    -0.05530
C261        C  0.29754434  0.45468730  0.55963460    -0.32960
C262        C  0.30725097  0.42162158  0.58930193     0.36290
C263        C  0.27337086  0.39431499  0.60431219    -0.05890
C264        C  0.23129912  0.39774198  0.58592035    -0.32860
C265        C  0.22163845  0.43061329  0.55620781     0.36190
H266        H  0.32324961  0.47735733  0.55028620     0.16560
O267        O  0.34867400  0.41915638  0.60624199    -0.60360
H268        H  0.20499294  0.37630984  0.59636971     0.16580
O269        O  0.17978790  0.43435013  0.54028633    -0.60460
H270        H  0.16082265  0.44172452  0.56419110     0.43570
H271        H  0.36515411  0.39947598  0.58803142     0.43530
C272        C  0.22671863  0.09809931  0.61224099    -0.05530
C273        C  0.18960404  0.07793227  0.59534645    -0.32960
C274        C  0.19422524  0.04895144  0.56257505     0.36290
C275        C  0.23629553  0.04007041  0.54631704    -0.05890
C276        C  0.27262389  0.06307529  0.56056910    -0.32860
C277        C  0.26822782  0.09172473  0.59326623     0.36190
H278        H  0.15746757  0.08252881  0.60910588     0.16560
O279        O  0.15795301  0.02706875  0.54866683    -0.60360
H280        H  0.30502197  0.05695469  0.54795801     0.16580
O281        O  0.30512022  0.11267128  0.60702408    -0.60460
H282        H  0.32288639  0.08992394  0.62168320     0.43570
H283        H  0.14091088  0.04872764  0.53187040     0.43530
C284        C  0.40614915  0.26847779  0.38745786    -0.05530
C285        C  0.41145668  0.29713186  0.42043848    -0.32960
C286        C  0.44116593  0.28712555  0.45342434     0.36290
C287        C  0.46482143  0.24756149  0.45408816    -0.05890
C288        C  0.45709753  0.21841406  0.42261498    -0.32860
C289        C  0.42973429  0.22868368  0.38923988     0.36190
H290        H  0.39361676  0.32752062  0.42011820     0.16560
O291        O  0.44817819  0.31687485  0.48369124    -0.60360
H292        H  0.47467452  0.18802551  0.42213100     0.16580
O293        O  0.42939812  0.20059468  0.35675371    -0.60460
H294        H  0.41669943  0.17305619  0.36817077     0.43570
H295        H  0.47393807  0.33420272  0.47397477     0.43530
C296        C  0.11013380  0.22663995  0.39323273    -0.05530
C297        C  0.09099972  0.18917591  0.41118831    -0.32960
C298        C  0.05992581  0.19276196  0.44327879     0.36290
C299        C  0.04649312  0.23421071  0.45577333    -0.05890
C300        C  0.06898413  0.27090563  0.44111916    -0.32860
C301        C  0.10159097  0.26724830  0.41115236     0.36190
H302        H  0.09807108  0.15760928  0.39887843     0.16560
O303        O  0.03998878  0.15607432  0.45958150    -0.60360
H304        H  0.05988852  0.30274288  0.45165471     0.16580
O305        O  0.12302967  0.30426185  0.39789492    -0.60460
H306        H  0.15033035  0.30514958  0.41488174     0.43570
H307        H  0.06259394  0.14179416  0.47758956     0.43530
C308        C  0.41029259  0.21614978  0.61654851    -0.05530
C309        C  0.40941733  0.19156509  0.58043406    -0.32960
C310        C  0.43905799  0.20110747  0.54743454     0.36290
C311        C  0.46854295  0.23672695  0.55000113    -0.05890
C312        C  0.46785194  0.26136646  0.58590567    -0.32860
C313        C  0.44137950  0.25004505  0.61943245     0.36190
H314        H  0.38578407  0.16542685  0.57765388     0.16560
O315        O  0.44059962  0.17415761  0.51422352    -0.60360
H316        H  0.48982834  0.28865498  0.58934516     0.16580
O317        O  0.44635110  0.27282855  0.65530941    -0.60460
H318        H  0.46624033  0.25489185  0.67329595     0.43570
H319        H  0.41292187  0.17966755  0.49847696     0.43530
C320        C  0.11198167  0.26665092  0.60526982    -0.05530
C321        C  0.10242334  0.22398894  0.59325804    -0.32960
C322        C  0.07093780  0.21597860  0.56293948     0.36290
C323        C  0.05003392  0.25081702  0.54241561    -0.05890
C324        C  0.06418254  0.29351396  0.54961125    -0.32860
C325        C  0.09473332  0.30167519  0.58143330     0.36190
H326        H  0.11659093  0.19626374  0.60978033     0.16560
O327        O  0.05834969  0.17406242  0.55582184    -0.60360
H328        H  0.04799102  0.32060549  0.53372693     0.16580
O329        O  0.10383036  0.34363946  0.59151269    -0.60460
H330        H  0.12755131  0.35314767  0.57208037     0.43570
H331        H  0.03587767  0.16690654  0.57737277     0.43530
C332        C  0.50704901  0.74343779  0.52153194     0.00500
C333        C  0.00533631  0.74035233  0.47967544     0.00490
C334        C  0.24348158  0.00140522  0.52072741     0.00500
C335        C  0.24414768  0.50388651  0.47852638     0.00490
C336        C  0.13464351  0.77148528  0.64576863     0.42390
N337        N  0.16181649  0.74974569  0.70420548     0.01280
C338        C  0.33140163  0.83565770  0.81929039    -0.06600
H339        H  0.34738318  0.83737557  0.64924478     0.06770
C340        C  0.35330291  0.67727658  0.67151830    -0.06950
Co341      Co  0.21742527  0.81529635  0.74822988     0.74180
N342        N  0.29841477  0.82431669  0.69729375    -0.26130
Co343      Co  0.32344377  0.78093871  0.74351855     0.74070
C344        C  0.37563172  0.71350399  0.64872706     0.42490
N345        N  0.24631303  0.65059041  0.70795113     0.00890
N346        N  0.33975959  0.73808051  0.69995328     0.01000
N347        N  0.26168840  0.85897844  0.82880279    -0.46970
H348        H  0.16226954  0.84075362  0.65384565     0.06760
N349        N  0.25759255  0.83755815  0.70116506     0.01290
N350        N  0.34712804  0.73775171  0.78974043     0.01030
C351        C  0.38222998  0.70881449  0.84099234     0.42630
N352        N  0.20504760  0.66347467  0.70543877    -0.25580
C353        C  0.15568855  0.81522496  0.82126205    -0.06500
N354        N  0.13872537  0.73732027  0.67209442    -0.46690
N355        N  0.37939729  0.74500341  0.81652145    -0.46910
C356        C  0.12340507  0.78602914  0.83936696     0.42400
N357        N  0.26490151  0.83598978  0.79403897     0.01270
N358        N  0.20293323  0.66639582  0.79747917    -0.25600
N359        N  0.17375633  0.79097467  0.70196945    -0.26100
N360        N  0.24352495  0.65135481  0.79969475     0.00910
H361        H  0.14437818  0.65576004  0.83403140     0.06800
H362        H  0.34590707  0.64396530  0.83516869     0.06840
N363        N  0.30549918  0.82226383  0.78881728    -0.26150
N364        N  0.33129027  0.69612939  0.70301729    -0.25760
N365        N  0.15972498  0.75199409  0.79394817     0.01280
C366        C  0.27783845  0.86766899  0.64329366     0.42670
C367        C  0.18740570  0.64586352  0.67095849    -0.07010
N368        N  0.33088356  0.69817838  0.79419502    -0.25760
H369        H  0.35452930  0.64293608  0.66607011     0.06820
N370        N  0.24416305  0.86302030  0.66999692    -0.46980
H371        H  0.15418495  0.65069011  0.65971560     0.06810
C372        C  0.20867231  0.62152620  0.85193646     0.42510
C373        C  0.15723203  0.80798138  0.66571954    -0.06510
Co374      Co  0.18135919  0.70742099  0.75026531     0.73820
N375        N  0.25861045  0.62616197  0.67708610    -0.46700
C376        C  0.30300057  0.85924850  0.84626517     0.42780
N377        N  0.12675941  0.74732889  0.82087577    -0.46690
Co378      Co  0.28869479  0.67278535  0.75181414     0.73890
C379        C  0.35034606  0.67780216  0.82618429    -0.07020
C380        C  0.31472154  0.84240832  0.66153410    -0.06580
N381        N  0.17605824  0.79173435  0.79333782    -0.26110
N382        N  0.36507936  0.74936728  0.66856733    -0.46870
H383        H  0.36600104  0.82830493  0.82296270     0.06780
C384        C  0.17900533  0.64982370  0.82888036    -0.06990
Cl385      Cl  0.25259756  0.74400784  0.74881629    -0.49990
C386        C  0.22378538  0.62175889  0.65185098     0.42540
H387        H  0.15985135  0.84974922  0.82508899     0.06750
N388        N  0.24826203  0.62292434  0.83175297    -0.46700
C389        C  0.13383353  0.72554069  0.35308707     0.42390
N390        N  0.16091906  0.75088176  0.29606945     0.01280
C391        C  0.32467257  0.67027094  0.17129361    -0.06600
H392        H  0.34567546  0.66091305  0.34312852     0.06770
C393        C  0.35215116  0.81545640  0.33343857    -0.06950
Co394      Co  0.21429127  0.68764292  0.24709676     0.74180
N395        N  0.29672406  0.67498391  0.29532827    -0.26130
Co396      Co  0.32136196  0.72060671  0.25039148     0.74070
C397        C  0.37588195  0.77699035  0.35143586     0.42490
N398        N  0.24670726  0.84798095  0.29727856     0.00890
N399        N  0.34129724  0.75970956  0.29606971     0.01000
N400        N  0.25461466  0.64651483  0.16435046    -0.46970
H401        H  0.15895163  0.65654816  0.34000825     0.06760
N402        N  0.25555698  0.66236565  0.29179316     0.01290
N403        N  0.34363429  0.76657072  0.20609893     0.01030
C404        C  0.37041090  0.79743843  0.15159914     0.42630
N405        N  0.20487502  0.83668427  0.29817352    -0.25580
C406        C  0.14919744  0.69127641  0.17737269    -0.06500
N407        N  0.13829514  0.76138449  0.32904976    -0.46690
N408        N  0.37003873  0.75980556  0.17406089    -0.46910
C409        C  0.11401755  0.71990026  0.16430257     0.42400
N410        N  0.25956032  0.66903852  0.19920101     0.01270
N411        N  0.20155912  0.83869202  0.20685795    -0.25600
N412        N  0.17206326  0.70950503  0.29555256    -0.26100
N413        N  0.24227713  0.85381276  0.20563522     0.00910
H414        H  0.14280055  0.85190197  0.17123095     0.06800
H415        H  0.33805090  0.86261081  0.16548806     0.06840
N416        N  0.30042643  0.68267609  0.20322875    -0.26150
N417        N  0.33153071  0.80117218  0.29855308    -0.25760
N418        N  0.15557216  0.75339545  0.20660521     0.01280
C419        C  0.27608149  0.63093167  0.34909565     0.42670
C420        C  0.18649281  0.85536259  0.33150465    -0.07010
N421        N  0.32891221  0.80679394  0.20631544    -0.25760
H422        H  0.35064573  0.84806958  0.34486473     0.06820
N423        N  0.24216207  0.63657739  0.32272033    -0.46980
H424        H  0.15229977  0.85285135  0.34028865     0.06810
C425        C  0.20725515  0.88702510  0.15531697     0.42510
C426        C  0.15523955  0.69024353  0.33058920    -0.06510
Co427      Co  0.17984748  0.79536985  0.25185268     0.73820
N428        N  0.25870937  0.87238490  0.32831822    -0.46700
C429        C  0.29480701  0.64735581  0.14497386     0.42780
N430        N  0.11927085  0.75802547  0.18366885    -0.46690
Co431      Co  0.28823232  0.82878047  0.25176545     0.73890
C432        C  0.34420776  0.82876140  0.17317842    -0.07020
C433        C  0.31308264  0.65606116  0.33074683    -0.06580
N434        N  0.17210808  0.71400943  0.20423619    -0.26110
N435        N  0.36667494  0.74481435  0.32608151    -0.46870
H436        H  0.35934115  0.67687464  0.16681219     0.06780
C437        C  0.17753240  0.85734508  0.17659769    -0.06990
Cl438      Cl  0.25081389  0.75828190  0.25000308    -0.49990
C439        C  0.22296035  0.87839401  0.35187534     0.42540
H440        H  0.15271236  0.65681648  0.17284057     0.06750
N441        N  0.24700018  0.88419579  0.17526255    -0.46700
O442        O  0.04094117  0.89558403  0.97684963    -0.80210
O443        O  0.03444336  0.61085116  0.03039809    -0.80230
O444        O  0.05185599  0.52451771  0.92860487    -0.80240
O445        O  0.04737985  0.98120724  0.07735219    -0.80180
O446        O  0.07329838  0.54488095  0.99148939    -0.80300
O447        O  0.07417265  0.96413555  0.01569316    -0.80220
O448        O  0.01020669  0.56713182  0.08147039    -0.80210
O449        O  0.01813565  0.93761201  0.92395592    -0.80240
C450        C  0.03519694  0.90144280  0.93839997     1.09480
C451        C  0.02612182  0.60440817  0.06831218     1.09370
C452        C  0.08180371  0.53783496  0.95325887     1.09510
C453        C  0.07978849  0.97035626  0.05444828     1.09380
O454        O  0.51043728  0.91089302  0.04718515    -0.80210
O455        O  0.50991022  0.59555400  0.95808656    -0.80280
O456        O  0.43190406  0.97520112  0.93687896    -0.80220
O457        O  0.42696020  0.52683132  0.06201828    -0.80200
O458        O  0.44902042  0.58217687  0.02350618    -0.80250
O459        O  0.45416148  0.92112738  0.97732934    -0.80220
O460        O  0.45525220  0.94793606  0.06717945    -0.80180
O461        O  0.46051128  0.55607439  0.92886585    -0.80250
Co462      Co  0.01565410  0.94570777  0.99500734     1.51530
Co463      Co  0.01262720  0.56023204  0.00951105     1.51570
Co464      Co  0.99071923  0.99941390  0.93550183     1.51570
Co465      Co  0.98584954  0.50467214  0.06640379     1.51470
O466        O  0.99023569  0.50267483  0.00101227    -1.42140
C467        C  0.47424288  0.91216896  0.06483723     1.09410
C468        C  0.47945535  0.59194163  0.93259870     1.09500
C469        C  0.42455488  0.93856688  0.95350944     1.09440
C470        C  0.41896081  0.56330055  0.04580438     1.09410
C471        C  0.19110648  0.91971191  0.12394375    -0.05530
C472        C  0.16800479  0.95565956  0.13844772    -0.32960
C473        C  0.13414535  0.97531700  0.11451659     0.36290
C474        C  0.12302222  0.95944277  0.07491833    -0.05890
C475        C  0.14977948  0.92684690  0.05849121    -0.32860
C476        C  0.18317416  0.90683653  0.08276279     0.36190
H477        H  0.17294687  0.96563240  0.17024518     0.16560
O478        O  0.11056137  0.00854126  0.13112176    -0.60360
H479        H  0.14213416  0.91386837  0.02828338     0.16580
O480        O  0.20411421  0.87116146  0.06779440    -0.60460
H481        H  0.23242580  0.88231899  0.05640296     0.43570
H482        H  0.09045317  0.99448285  0.15181484     0.43530
C483        C  0.07334554  0.70273276  0.14682834    -0.05530
C484        C  0.06442691  0.71330466  0.10520671    -0.32960
C485        C  0.04471012  0.68274613  0.07992117     0.36290
C486        C  0.03461157  0.64062301  0.09644932    -0.05890
C487        C  0.03656654  0.63312951  0.13964330    -0.32860
C488        C  0.05559689  0.66424599  0.16502716     0.36190
H489        H  0.07747051  0.74300796  0.09104311     0.16560
O490        O  0.03928594  0.69316010  0.03833760    -0.60360
H491        H  0.02693612  0.60197940  0.15331982     0.16580
O492        O  0.06105732  0.65508664  0.20691986    -0.60460
H493        H  0.08247318  0.63085645  0.20895263     0.43570
H494        H  0.01273076  0.71180491  0.03689129     0.43530
C495        C  0.31062793  0.62593815  0.10670219    -0.05530
C496        C  0.31251396  0.58069737  0.10632768    -0.32960
C497        C  0.34467571  0.55964296  0.08267070     0.36290
C498        C  0.37615812  0.58395216  0.05846865    -0.05890
C499        C  0.37030642  0.62904420  0.05490282    -0.32860
C500        C  0.33780670  0.64987773  0.07840392     0.36190
H501        H  0.29234885  0.56160225  0.12787821     0.16560
O502        O  0.34695291  0.51518343  0.08603007    -0.60360
H503        H  0.39335838  0.64871161  0.03690657     0.16580
O504        O  0.33619774  0.69435274  0.07703676    -0.60460
H505        H  0.31261249  0.70179060  0.05663312     0.43570
H506        H  0.35975925  0.50858821  0.11401168     0.43530
C507        C  0.39998473  0.80963776  0.11776270    -0.05530
C508        C  0.44525755  0.81095447  0.12624073    -0.32960
C509        C  0.47160813  0.84237073  0.10616001     0.36290
C510        C  0.45191544  0.87243113  0.07814036    -0.05890
C511        C  0.40832457  0.86670693  0.06534235    -0.32860
C512        C  0.38232139  0.83500121  0.08473740     0.36190
H513        H  0.45892906  0.79165680  0.15192350     0.16560
O514        O  0.51468519  0.84711060  0.11814918    -0.60360
H515        H  0.39355114  0.88883073  0.04243827     0.16580
O516        O  0.33845933  0.83207137  0.07456413    -0.60460
H517        H  0.32442546  0.85827685  0.08582982     0.43570
H518        H  0.53162248  0.82796363  0.09978225     0.43530
C519        C  0.08603979  0.80207526  0.86251481    -0.05530
C520        C  0.06145397  0.83589497  0.84363235    -0.32960
C521        C  0.04263137  0.86794684  0.86777574     0.36290
C522        C  0.04776955  0.86560625  0.91136415    -0.05890
C523        C  0.06732797  0.82829351  0.93008104    -0.32860
C524        C  0.08652624  0.79676154  0.90589683     0.36190
H525        H  0.06124214  0.84020944  0.80995234     0.16560
O526        O  0.02169505  0.90237403  0.84833295    -0.60360
H527        H  0.07068183  0.82481173  0.96365746     0.16580
O528        O  0.11105487  0.76447986  0.92491676    -0.60460
H529        H  0.09098238  0.73911129  0.92727299     0.43570
H530        H  0.04545467  0.92317689  0.84048045     0.43530
C531        C  0.12560009  0.55009673  0.93482198    -0.05530
C532        C  0.14794542  0.58693656  0.94889294    -0.32960
C533        C  0.18076872  0.60749532  0.92433341     0.36290
C534        C  0.19262097  0.59096175  0.88535174    -0.05890
C535        C  0.17393326  0.55142289  0.87364246    -0.32860
C536        C  0.14082462  0.53102536  0.89792681     0.36190
H537        H  0.13695776  0.60245811  0.97689168     0.16560
O538        O  0.19721068  0.64667290  0.93634349    -0.60360
H539        H  0.18167921  0.53863169  0.84341905     0.16580
O540        O  0.12086598  0.49453493  0.88324431    -0.60460
H541        H  0.13451709  0.46994644  0.89913281     0.43570
H542        H  0.22474489  0.63953208  0.95171400     0.43530
C543        C  0.46506175  0.62999674  0.90880455    -0.05530
C544        C  0.46861277  0.63064813  0.86542190    -0.32960
C545        C  0.44766942  0.66316167  0.84182822     0.36290
C546        C  0.42185027  0.69398993  0.86206321    -0.05890
C547        C  0.42303892  0.69642796  0.90546767    -0.32860
C548        C  0.44526675  0.66470192  0.92904193     0.36190
H549        H  0.48532109  0.60465463  0.84987281     0.16560
O550        O  0.44811585  0.66176318  0.79904876    -0.60360
H551        H  0.40281642  0.71983137  0.92114264     0.16580
O552        O  0.44306998  0.66503837  0.97169051    -0.60460
H553        H  0.46942959  0.68151636  0.98034234     0.43570
H554        H  0.42820225  0.63752632  0.79187056     0.43530
C555        C  0.31979251  0.87748443  0.88605739    -0.05530
C556        C  0.34943867  0.85187319  0.91030094    -0.32960
C557        C  0.38074338  0.87062707  0.93693925     0.36290
C558        C  0.38309243  0.91603840  0.93989439    -0.05890
C559        C  0.34960784  0.94102865  0.91982903    -0.32860
C560        C  0.31861402  0.92223929  0.89286196     0.36190
H561        H  0.35127410  0.81727515  0.90544140     0.16560
O562        O  0.41226380  0.84468664  0.95543424    -0.60360
H563        H  0.34998985  0.97605389  0.92181737     0.16580
O564        O  0.29066749  0.94856105  0.86999142    -0.60460
H565        H  0.30774853  0.95815284  0.84502641     0.43570
H566        H  0.39763966  0.83090635  0.98008614     0.43530
C567        C  0.23725150  0.96499460  0.45316976    -0.05530
C568        C  0.19492052  0.95628152  0.43755811    -0.32960
C569        C  0.18864814  0.92586804  0.40632265     0.36290
C570        C  0.22521183  0.90414498  0.39011784    -0.05890
C571        C  0.26697467  0.91077835  0.40816056    -0.32860
C572        C  0.27311092  0.94086947  0.43936871     0.36190
H573        H  0.16696890  0.97469647  0.44814271     0.16560
O574        O  0.14749214  0.92053436  0.38960324    -0.60360
H575        H  0.29558836  0.89388060  0.39679202     0.16580
O576        O  0.31471471  0.94855359  0.45416664    -0.60460
H577        H  0.32038535  0.92482470  0.47503411     0.43570
H578        H  0.13272117  0.89892280  0.40838431     0.43530
C579        C  0.27081033  0.60614983  0.38928136    -0.05530
C580        C  0.22778353  0.59971960  0.40476936    -0.32960
C581        C  0.21901613  0.56952801  0.43710764     0.36290
C582        C  0.25345297  0.54499948  0.45471256    -0.05890
C583        C  0.29701224  0.55420904  0.44220905    -0.32860
C584        C  0.30590052  0.58478487  0.40983368     0.36190
H585        H  0.20022570  0.61657778  0.39037812     0.16560
O586        O  0.17630827  0.56180197  0.44899980    -0.60360
H587        H  0.32396159  0.53555503  0.45568198     0.16580
O588        O  0.34831434  0.59031373  0.39612738    -0.60460
H589        H  0.36079688  0.61337876  0.41356862     0.43570
H590        H  0.16855011  0.58624057  0.46699137     0.43530
C591        C  0.25445253  0.96044805  0.54414659    -0.05530
C592        C  0.29754433  0.95468729  0.55963459    -0.32960
C593        C  0.30725097  0.92162157  0.58930192     0.36290
C594        C  0.27337085  0.89431499  0.60431219    -0.05890
C595        C  0.23129911  0.89774199  0.58592036    -0.32860
C596        C  0.22163845  0.93061330  0.55620782     0.36190
H597        H  0.32324961  0.97735732  0.55028619     0.16560
O598        O  0.34867400  0.91915637  0.60624198    -0.60360
H599        H  0.20499293  0.87630986  0.59636973     0.16580
O600        O  0.17978789  0.93435014  0.54028634    -0.60460
H601        H  0.16082265  0.94172454  0.56419112     0.43570
H602        H  0.36515410  0.89947597  0.58803140     0.43530
C603        C  0.22671863  0.59809932  0.61224099    -0.05530
C604        C  0.18960404  0.57793226  0.59534645    -0.32960
C605        C  0.19422524  0.54895144  0.56257506     0.36290
C606        C  0.23629553  0.54007041  0.54631704    -0.05890
C607        C  0.27262389  0.56307530  0.56056910    -0.32860
C608        C  0.26822782  0.59172474  0.59326622     0.36190
H609        H  0.15746757  0.58252880  0.60910589     0.16560
O610        O  0.15795301  0.52706873  0.54866685    -0.60360
H611        H  0.30502196  0.55695470  0.54795800     0.16580
O612        O  0.30512021  0.61267130  0.60702407    -0.60460
H613        H  0.32288639  0.58992397  0.62168319     0.43570
H614        H  0.14091089  0.54872762  0.53187040     0.43530
C615        C  0.40614916  0.76847779  0.38745786    -0.05530
C616        C  0.41145668  0.79713186  0.42043848    -0.32960
C617        C  0.44116594  0.78712555  0.45342434     0.36290
C618        C  0.46482144  0.74756149  0.45408816    -0.05890
C619        C  0.45709754  0.71841406  0.42261497    -0.32860
C620        C  0.42973430  0.72868368  0.38923988     0.36190
H621        H  0.39361677  0.82752061  0.42011820     0.16560
O622        O  0.44817820  0.81687484  0.48369123    -0.60360
H623        H  0.47467453  0.68802551  0.42213100     0.16580
O624        O  0.42939813  0.70059468  0.35675370    -0.60460
H625        H  0.41669945  0.67305619  0.36817077     0.43570
H626        H  0.47393807  0.83420272  0.47397477     0.43530
C627        C  0.11013382  0.72663994  0.39323274    -0.05530
C628        C  0.09099973  0.68917590  0.41118831    -0.32960
C629        C  0.05992582  0.69276195  0.44327880     0.36290
C630        C  0.04649313  0.73421071  0.45577334    -0.05890
C631        C  0.06898415  0.77090562  0.44111917    -0.32860
C632        C  0.10159099  0.76724829  0.41115237     0.36190
H633        H  0.09807109  0.65760927  0.39887844     0.16560
O634        O  0.03998878  0.65607432  0.45958151    -0.60360
H635        H  0.05988854  0.80274287  0.45165472     0.16580
O636        O  0.12302969  0.80426184  0.39789494    -0.60460
H637        H  0.15033037  0.80514956  0.41488176     0.43570
H638        H  0.06259393  0.64179415  0.47758957     0.43530
C639        C  0.41029259  0.71614979  0.61654851    -0.05530
C640        C  0.40941733  0.69156509  0.58043406    -0.32960
C641        C  0.43905800  0.70110747  0.54743454     0.36290
C642        C  0.46854295  0.73672696  0.55000113    -0.05890
C643        C  0.46785193  0.76136649  0.58590565    -0.32860
C644        C  0.44137949  0.75004507  0.61943243     0.36190
H645        H  0.38578408  0.66542685  0.57765389     0.16560
O646        O  0.44059963  0.67415760  0.51422353    -0.60360
H647        H  0.48982833  0.78865501  0.58934514     0.16580
O648        O  0.44635109  0.77282859  0.65530939    -0.60460
H649        H  0.46624032  0.75489190  0.67329593     0.43570
H650        H  0.41292189  0.67966754  0.49847696     0.43530
C651        C  0.11198167  0.76665092  0.60526983    -0.05530
C652        C  0.10242333  0.72398894  0.59325805    -0.32960
C653        C  0.07093779  0.71597860  0.56293949     0.36290
C654        C  0.05003392  0.75081703  0.54241562    -0.05890
C655        C  0.06418254  0.79351397  0.54961125    -0.32860
C656        C  0.09473332  0.80167519  0.58143331     0.36190
H657        H  0.11659092  0.69626374  0.60978035     0.16560
O658        O  0.05834968  0.67406242  0.55582185    -0.60360
H659        H  0.04799103  0.82060550  0.53372693     0.16580
O660        O  0.10383036  0.84363946  0.59151269    -0.60460
H661        H  0.12755131  0.85314767  0.57208037     0.43570
H662        H  0.03587766  0.66690654  0.57737278     0.43530
C663        C  0.00704900  0.24343779  0.52153195     0.00500
C664        C  0.50533631  0.24035233  0.47967544     0.00490
C665        C  0.74348158  0.50140522  0.52072742     0.00500
C666        C  0.74414767  0.00388651  0.47852638     0.00490
C667        C  0.63464351  0.27148528  0.64576862     0.42390
N668        N  0.66181649  0.24974569  0.70420547     0.01280
C669        C  0.83140163  0.33565770  0.81929038    -0.06600
H670        H  0.84738318  0.33737556  0.64924478     0.06770
C671        C  0.85330291  0.17727657  0.67151831    -0.06950
Co672      Co  0.71742527  0.31529635  0.74822987     0.74180
N673        N  0.79841477  0.32431668  0.69729374    -0.26130
Co674      Co  0.82344377  0.28093871  0.74351854     0.74070
C675        C  0.87563172  0.21350398  0.64872706     0.42490
N676        N  0.74631303  0.15059041  0.70795113     0.00890
N677        N  0.83975959  0.23808050  0.69995328     0.01000
N678        N  0.76168840  0.35897844  0.82880278    -0.46970
H679        H  0.66226955  0.34075361  0.65384564     0.06760
N680        N  0.75759255  0.33755814  0.70116505     0.01290
N681        N  0.84712804  0.23775171  0.78974043     0.01030
C682        C  0.88222998  0.20881448  0.84099234     0.42630
N683        N  0.70504760  0.16347467  0.70543876    -0.25580
C684        C  0.65568854  0.31522496  0.82126204    -0.06500
N685        N  0.63872537  0.23732027  0.67209441    -0.46690
N686        N  0.87939729  0.24500340  0.81652144    -0.46910
C687        C  0.62340507  0.28602914  0.83936695     0.42400
N688        N  0.76490151  0.33598978  0.79403896     0.01270
N689        N  0.70293323  0.16639582  0.79747917    -0.25600
N690        N  0.67375633  0.29097467  0.70196944    -0.26100
N691        N  0.74352494  0.15135481  0.79969475     0.00910
H692        H  0.64437817  0.15576005  0.83403140     0.06800
H693        H  0.84590706  0.14396530  0.83516869     0.06840
N694        N  0.80549918  0.32226382  0.78881728    -0.26150
N695        N  0.83129026  0.19612938  0.70301729    -0.25760
N696        N  0.65972498  0.25199409  0.79394816     0.01280
C697        C  0.77783845  0.36766899  0.64329366     0.42670
C698        C  0.68740570  0.14586352  0.67095849    -0.07010
N699        N  0.83088356  0.19817837  0.79419502    -0.25760
H700        H  0.85452930  0.14293607  0.66607012     0.06820
N701        N  0.74416306  0.36302029  0.66999692    -0.46980
H702        H  0.65418495  0.15069011  0.65971560     0.06810
C703        C  0.70867230  0.12152620  0.85193646     0.42510
C704        C  0.65723203  0.30798138  0.66571953    -0.06510
Co705      Co  0.68135918  0.20742099  0.75026531     0.73820
N706        N  0.75861045  0.12616197  0.67708610    -0.46700
C707        C  0.80300057  0.35924850  0.84626516     0.42780
N708        N  0.62675941  0.24732889  0.82087576    -0.46690
Co709      Co  0.78869479  0.17278535  0.75181414     0.73890
C710        C  0.85034606  0.17780216  0.82618429    -0.07020
C711        C  0.81472155  0.34240831  0.66153409    -0.06580
N712        N  0.67605824  0.29173435  0.79333781    -0.26110
N713        N  0.86507936  0.24936727  0.66856733    -0.46870
H714        H  0.86600104  0.32830492  0.82296270     0.06780
C715        C  0.67900533  0.14982370  0.82888036    -0.06990
Cl716      Cl  0.75259755  0.24400784  0.74881628    -0.49990
C717        C  0.72378538  0.12175889  0.65185098     0.42540
H718        H  0.65985135  0.34974922  0.82508898     0.06750
N719        N  0.74826202  0.12292435  0.83175297    -0.46700
C720        C  0.63383352  0.22554070  0.35308707     0.42390
N721        N  0.66091906  0.25088177  0.29606944     0.01280
C722        C  0.82467257  0.17027094  0.17129362    -0.06600
H723        H  0.84567545  0.16091305  0.34312852     0.06770
C724        C  0.85215116  0.31545641  0.33343857    -0.06950
Co725      Co  0.71429127  0.18764292  0.24709675     0.74180
N726        N  0.79672405  0.17498392  0.29532827    -0.26130
Co727      Co  0.82136196  0.22060672  0.25039149     0.74070
C728        C  0.87588195  0.27699035  0.35143586     0.42490
N729        N  0.74670726  0.34798096  0.29727856     0.00890
N730        N  0.84129723  0.25970957  0.29606971     0.01000
N731        N  0.75461466  0.14651483  0.16435046    -0.46970
H732        H  0.65895162  0.15654817  0.34000824     0.06760
N733        N  0.75555698  0.16236566  0.29179316     0.01290
N734        N  0.84363429  0.26657072  0.20609893     0.01030
C735        C  0.87041090  0.29743843  0.15159914     0.42630
N736        N  0.70487502  0.33668428  0.29817352    -0.25580
C737        C  0.64919744  0.19127642  0.17737268    -0.06500
N738        N  0.63829513  0.26138450  0.32904975    -0.46690
N739        N  0.87003873  0.25980556  0.17406089    -0.46910
C740        C  0.61401755  0.21990027  0.16430256     0.42400
N741        N  0.75956032  0.16903852  0.19920100     0.01270
N742        N  0.70155912  0.33869202  0.20685795    -0.25600
N743        N  0.67206326  0.20950504  0.29555256    -0.26100
N744        N  0.74227713  0.35381277  0.20563522     0.00910
H745        H  0.64280056  0.35190197  0.17123094     0.06800
H746        H  0.83805090  0.36261082  0.16548806     0.06840
N747        N  0.80042643  0.18267609  0.20322875    -0.26150
N748        N  0.83153070  0.30117218  0.29855308    -0.25760
N749        N  0.65557216  0.25339545  0.20660520     0.01280
C750        C  0.77608148  0.13093167  0.34909564     0.42670
C751        C  0.68649281  0.35536260  0.33150465    -0.07010
N752        N  0.82891221  0.30679394  0.20631544    -0.25760
H753        H  0.85064572  0.34806958  0.34486473     0.06820
N754        N  0.74216206  0.13657739  0.32272033    -0.46980
H755        H  0.65229977  0.35285136  0.34028864     0.06810
C756        C  0.70725516  0.38702510  0.15531697     0.42510
C757        C  0.65523954  0.19024354  0.33058919    -0.06510
Co758      Co  0.67984748  0.29536985  0.25185267     0.73820
N759        N  0.75870936  0.37238491  0.32831822    -0.46700
C760        C  0.79480701  0.14735581  0.14497386     0.42780
N761        N  0.61927084  0.25802548  0.18366885    -0.46690
Co762      Co  0.78823232  0.32878047  0.25176545     0.73890
C763        C  0.84420776  0.32876140  0.17317842    -0.07020
C764        C  0.81308263  0.15606116  0.33074683    -0.06580
N765        N  0.67210808  0.21400944  0.20423619    -0.26110
N766        N  0.86667493  0.24481435  0.32608151    -0.46870
H767        H  0.85934115  0.17687464  0.16681220     0.06780
C768        C  0.67753241  0.35734509  0.17659769    -0.06990
Cl769      Cl  0.75081389  0.25828191  0.25000308    -0.49990
C770        C  0.72296035  0.37839402  0.35187534     0.42540
H771        H  0.65271236  0.15681648  0.17284056     0.06750
N772        N  0.74700018  0.38419580  0.17526255    -0.46700
O773        O  0.54094117  0.39558403  0.97684963    -0.80210
O774        O  0.53444335  0.11085117  0.03039809    -0.80230
O775        O  0.55185599  0.02451772  0.92860488    -0.80240
O776        O  0.54737985  0.48120723  0.07735219    -0.80180
O777        O  0.57329838  0.04488096  0.99148940    -0.80300
O778        O  0.57417265  0.46413554  0.01569316    -0.80220
O779        O  0.51020668  0.06713182  0.08147039    -0.80210
O780        O  0.51813566  0.43761201  0.92395591    -0.80240
C781        C  0.53519695  0.40144279  0.93839997     1.09480
C782        C  0.52612182  0.10440818  0.06831218     1.09370
C783        C  0.58180370  0.03783496  0.95325887     1.09510
C784        C  0.57978850  0.47035625  0.05444827     1.09380
O785        O  0.01043728  0.41089302  0.04718515    -0.80210
O786        O  0.00991022  0.09555400  0.95808656    -0.80280
O787        O  0.93190406  0.47520112  0.93687895    -0.80220
O788        O  0.92696020  0.02683133  0.06201827    -0.80200
O789        O  0.94902041  0.08217688  0.02350618    -0.80250
O790        O  0.95416148  0.42112738  0.97732933    -0.80220
O791        O  0.95525221  0.44793606  0.06717944    -0.80180
O792        O  0.96051128  0.05607439  0.92886585    -0.80250
Co793      Co  0.51565411  0.44570776  0.99500733     1.51530
Co794      Co  0.51262719  0.06023205  0.00951106     1.51570
Co795      Co  0.49071923  0.49941390  0.93550183     1.51570
Co796      Co  0.48584954  0.00467215  0.06640380     1.51470
O797        O  0.49023569  0.00267483  0.00101227    -1.42140
C798        C  0.97424288  0.41216896  0.06483722     1.09410
C799        C  0.97945535  0.09194163  0.93259870     1.09500
C800        C  0.92455488  0.43856688  0.95350944     1.09440
C801        C  0.91896081  0.06330056  0.04580437     1.09410
C802        C  0.69110649  0.41971192  0.12394374    -0.05530
C803        C  0.66800480  0.45565956  0.13844771    -0.32960
C804        C  0.63414536  0.47531700  0.11451658     0.36290
C805        C  0.62302222  0.45944276  0.07491833    -0.05890
C806        C  0.64977948  0.42684690  0.05849121    -0.32860
C807        C  0.68317417  0.40683653  0.08276279     0.36190
H808        H  0.67294688  0.46563241  0.17024517     0.16560
O809        O  0.61056138  0.50854126  0.13112175    -0.60360
H810        H  0.64213416  0.41386837  0.02828338     0.16580
O811        O  0.70411421  0.37116145  0.06779439    -0.60460
H812        H  0.73242580  0.38231899  0.05640295     0.43570
H813        H  0.59045318  0.49448286  0.15181483     0.43530
C814        C  0.57334554  0.20273277  0.14682834    -0.05530
C815        C  0.56442690  0.21330466  0.10520671    -0.32960
C816        C  0.54471011  0.18274614  0.07992117     0.36290
C817        C  0.53461156  0.14062302  0.09644932    -0.05890
C818        C  0.53656654  0.13312952  0.13964330    -0.32860
C819        C  0.55559689  0.16424600  0.16502716     0.36190
H820        H  0.57747050  0.24300797  0.09104311     0.16560
O821        O  0.53928593  0.19316011  0.03833760    -0.60360
H822        H  0.52693612  0.10197941  0.15331983     0.16580
O823        O  0.56105733  0.15508665  0.20691986    -0.60460
H824        H  0.58247318  0.13085646  0.20895263     0.43570
H825        H  0.51273075  0.21180491  0.03689130     0.43530
C826        C  0.81062793  0.12593816  0.10670219    -0.05530
C827        C  0.81251395  0.08069738  0.10632766    -0.32960
C828        C  0.84467569  0.05964297  0.08267067     0.36290
C829        C  0.87615812  0.08395217  0.05846864    -0.05890
C830        C  0.87030643  0.12904421  0.05490283    -0.32860
C831        C  0.83780671  0.14987774  0.07840393     0.36190
H832        H  0.79234883  0.06160226  0.12787818     0.16560
O833        O  0.84695288  0.01518344  0.08603003    -0.60360
H834        H  0.89335840  0.14871163  0.03690659     0.16580
O835        O  0.83619776  0.19435275  0.07703678    -0.60460
H836        H  0.81261252  0.20179062  0.05663314     0.43570
H837        H  0.85975921  0.00858820  0.11401164     0.43530
C838        C  0.89998473  0.30963776  0.11776270    -0.05530
C839        C  0.94525755  0.31095447  0.12624072    -0.32960
C840        C  0.97160814  0.34237072  0.10616001     0.36290
C841        C  0.95191545  0.37243112  0.07814036    -0.05890
C842        C  0.90832457  0.36670693  0.06534235    -0.32860
C843        C  0.88232139  0.33500120  0.08473740     0.36190
H844        H  0.95892907  0.29165680  0.15192350     0.16560
O845        O  0.01468520  0.34711060  0.11814917    -0.60360
H846        H  0.89355114  0.38883072  0.04243827     0.16580
O847        O  0.83845933  0.33207137  0.07456413    -0.60460
H848        H  0.82442546  0.35827685  0.08582982     0.43570
H849        H  0.03162248  0.32796363  0.09978224     0.43530
C850        C  0.58603979  0.30207526  0.86251481    -0.05530
C851        C  0.56145397  0.33589496  0.84363235    -0.32960
C852        C  0.54263137  0.36794683  0.86777573     0.36290
C853        C  0.54776955  0.36560625  0.91136415    -0.05890
C854        C  0.56732798  0.32829351  0.93008104    -0.32860
C855        C  0.58652625  0.29676154  0.90589682     0.36190
H856        H  0.56124213  0.34020943  0.80995233     0.16560
O857        O  0.52169504  0.40237402  0.84833294    -0.60360
H858        H  0.57068185  0.32481174  0.96365746     0.16580
O859        O  0.61105489  0.26447987  0.92491675    -0.60460
H860        H  0.59098241  0.23911129  0.92727299     0.43570
H861        H  0.54545465  0.42317688  0.84048044     0.43530
C862        C  0.62560008  0.05009673  0.93482199    -0.05530
C863        C  0.64794541  0.08693657  0.94889295    -0.32960
C864        C  0.68076871  0.10749533  0.92433341     0.36290
C865        C  0.69262096  0.09096175  0.88535175    -0.05890
C866        C  0.67393326  0.05142289  0.87364247    -0.32860
C867        C  0.64082462  0.03102536  0.89792682     0.36190
H868        H  0.63695775  0.10245812  0.97689167     0.16560
O869        O  0.69721066  0.14667291  0.93634348    -0.60360
H870        H  0.68167921  0.03863169  0.84341906     0.16580
O871        O  0.62086599  0.99453492  0.88324432    -0.60460
H872        H  0.63451710  0.96994644  0.89913283     0.43570
H873        H  0.72474487  0.13953210  0.95171399     0.43530
C874        C  0.96506175  0.12999674  0.90880455    -0.05530
C875        C  0.96861277  0.13064813  0.86542190    -0.32960
C876        C  0.94766941  0.16316167  0.84182822     0.36290
C877        C  0.92185027  0.19398992  0.86206320    -0.05890
C878        C  0.92303892  0.19642796  0.90546767    -0.32860
C879        C  0.94526675  0.16470192  0.92904192     0.36190
H880        H  0.98532108  0.10465462  0.84987281     0.16560
O881        O  0.94811584  0.16176317  0.79904876    -0.60360
H882        H  0.90281642  0.21983137  0.92114264     0.16580
O883        O  0.94306998  0.16503837  0.97169051    -0.60460
H884        H  0.96942959  0.18151636  0.98034233     0.43570
H885        H  0.92820224  0.13752631  0.79187056     0.43530
C886        C  0.81979251  0.37748443  0.88605738    -0.05530
C887        C  0.84943867  0.35187319  0.91030094    -0.32960
C888        C  0.88074338  0.37062707  0.93693924     0.36290
C889        C  0.88309243  0.41603840  0.93989439    -0.05890
C890        C  0.84960784  0.44102865  0.91982902    -0.32860
C891        C  0.81861402  0.42223929  0.89286196     0.36190
H892        H  0.85127410  0.31727515  0.90544139     0.16560
O893        O  0.91226380  0.34468663  0.95543423    -0.60360
H894        H  0.84998986  0.47605389  0.92181736     0.16580
O895        O  0.79066749  0.44856105  0.86999141    -0.60460
H896        H  0.80774854  0.45815284  0.84502640     0.43570
H897        H  0.89763966  0.33090635  0.98008613     0.43530
C898        C  0.73725151  0.46499460  0.45316976    -0.05530
C899        C  0.69492052  0.45628154  0.43755810    -0.32960
C900        C  0.68864814  0.42586805  0.40632264     0.36290
C901        C  0.72521182  0.40414498  0.39011784    -0.05890
C902        C  0.76697467  0.41077834  0.40816057    -0.32860
C903        C  0.77311092  0.44086947  0.43936871     0.36190
H904        H  0.66696891  0.47469649  0.44814270     0.16560
O905        O  0.64749214  0.42053438  0.38960322    -0.60360
H906        H  0.79558835  0.39388059  0.39679203     0.16580
O907        O  0.81471471  0.44855358  0.45416666    -0.60460
H908        H  0.82038534  0.42482468  0.47503412     0.43570
H909        H  0.63272116  0.39892283  0.40838429     0.43530
C910        C  0.77081031  0.10614983  0.38928136    -0.05530
C911        C  0.72778351  0.09971959  0.40476934    -0.32960
C912        C  0.71901612  0.06952800  0.43710763     0.36290
C913        C  0.75345295  0.04499948  0.45471255    -0.05890
C914        C  0.79701222  0.05420906  0.44220906    -0.32860
C915        C  0.80590051  0.08478488  0.40983369     0.36190
H916        H  0.70022569  0.11657776  0.39037809     0.16560
O917        O  0.67630825  0.06180195  0.44899978    -0.60360
H918        H  0.82396158  0.03555505  0.45568200     0.16580
O919        O  0.84831433  0.09031375  0.39612739    -0.60460
H920        H  0.86079685  0.11337879  0.41356864     0.43570
H921        H  0.66855008  0.08624055  0.46699134     0.43530
C922        C  0.75445254  0.46044805  0.54414659    -0.05530
C923        C  0.79754434  0.45468730  0.55963460    -0.32960
C924        C  0.80725097  0.42162158  0.58930193     0.36290
C925        C  0.77337086  0.39431499  0.60431219    -0.05890
C926        C  0.73129912  0.39774198  0.58592035    -0.32860
C927        C  0.72163845  0.43061329  0.55620781     0.36190
H928        H  0.82324961  0.47735733  0.55028620     0.16560
O929        O  0.84867400  0.41915638  0.60624199    -0.60360
H930        H  0.70499294  0.37630984  0.59636971     0.16580
O931        O  0.67978790  0.43435013  0.54028633    -0.60460
H932        H  0.66082265  0.44172452  0.56419110     0.43570
H933        H  0.86515411  0.39947598  0.58803142     0.43530
C934        C  0.72671863  0.09809931  0.61224099    -0.05530
C935        C  0.68960404  0.07793227  0.59534645    -0.32960
C936        C  0.69422523  0.04895144  0.56257505     0.36290
C937        C  0.73629553  0.04007041  0.54631704    -0.05890
C938        C  0.77262389  0.06307529  0.56056910    -0.32860
C939        C  0.76822782  0.09172472  0.59326623     0.36190
H940        H  0.65746757  0.08252882  0.60910588     0.16560
O941        O  0.65795301  0.02706875  0.54866683    -0.60360
H942        H  0.80502197  0.05695469  0.54795801     0.16580
O943        O  0.80512022  0.11267127  0.60702408    -0.60460
H944        H  0.82288639  0.08992394  0.62168321     0.43570
H945        H  0.64091088  0.04872765  0.53187039     0.43530
C946        C  0.90614915  0.26847779  0.38745786    -0.05530
C947        C  0.91145668  0.29713186  0.42043848    -0.32960
C948        C  0.94116593  0.28712555  0.45342434     0.36290
C949        C  0.96482143  0.24756149  0.45408816    -0.05890
C950        C  0.95709752  0.21841406  0.42261498    -0.32860
C951        C  0.92973429  0.22868367  0.38923989     0.36190
H952        H  0.89361676  0.32752062  0.42011820     0.16560
O953        O  0.94817820  0.31687485  0.48369123    -0.60360
H954        H  0.97467451  0.18802551  0.42213101     0.16580
O955        O  0.92939811  0.20059467  0.35675372    -0.60460
H956        H  0.91669943  0.17305619  0.36817078     0.43570
H957        H  0.97393807  0.33420272  0.47397476     0.43530
C958        C  0.61013380  0.22663994  0.39323273    -0.05530
C959        C  0.59099973  0.18917591  0.41118831    -0.32960
C960        C  0.55992581  0.19276196  0.44327879     0.36290
C961        C  0.54649313  0.23421071  0.45577333    -0.05890
C962        C  0.56898413  0.27090562  0.44111916    -0.32860
C963        C  0.60159097  0.26724830  0.41115236     0.36190
H964        H  0.59807109  0.15760928  0.39887843     0.16560
O965        O  0.53998878  0.15607432  0.45958150    -0.60360
H966        H  0.55988852  0.30274288  0.45165471     0.16580
O967        O  0.62302967  0.30426185  0.39789492    -0.60460
H968        H  0.65033035  0.30514958  0.41488174     0.43570
H969        H  0.56259394  0.14179416  0.47758956     0.43530
C970        C  0.91029259  0.21614978  0.61654851    -0.05530
C971        C  0.90941733  0.19156508  0.58043406    -0.32960
C972        C  0.93905799  0.20110747  0.54743454     0.36290
C973        C  0.96854295  0.23672695  0.55000113    -0.05890
C974        C  0.96785194  0.26136646  0.58590567    -0.32860
C975        C  0.94137950  0.25004504  0.61943245     0.36190
H976        H  0.88578407  0.16542685  0.57765388     0.16560
O977        O  0.94059962  0.17415761  0.51422352    -0.60360
H978        H  0.98982834  0.28865498  0.58934516     0.16580
O979        O  0.94635110  0.27282855  0.65530942    -0.60460
H980        H  0.96624033  0.25489185  0.67329595     0.43570
H981        H  0.91292187  0.17966755  0.49847696     0.43530
C982        C  0.61198167  0.26665092  0.60526982    -0.05530
C983        C  0.60242334  0.22398894  0.59325804    -0.32960
C984        C  0.57093780  0.21597860  0.56293948     0.36290
C985        C  0.55003392  0.25081702  0.54241561    -0.05890
C986        C  0.56418254  0.29351396  0.54961125    -0.32860
C987        C  0.59473332  0.30167519  0.58143330     0.36190
H988        H  0.61659093  0.19626374  0.60978033     0.16560
O989        O  0.55834969  0.17406242  0.55582184    -0.60360
H990        H  0.54799102  0.32060549  0.53372693     0.16580
O991        O  0.60383036  0.34363946  0.59151269    -0.60460
H992        H  0.62755131  0.35314767  0.57208037     0.43570
H993        H  0.53587767  0.16690654  0.57737277     0.43530
C994        C  0.00704901  0.74343779  0.52153194     0.00500
C995        C  0.50533631  0.74035233  0.47967544     0.00490
C996        C  0.74348158  0.00140522  0.52072741     0.00500
C997        C  0.74414768  0.50388651  0.47852638     0.00490
C998        C  0.63464350  0.77148528  0.64576863     0.42390
N999        N  0.66181649  0.74974569  0.70420548     0.01280
C1000       C  0.83140163  0.83565770  0.81929038    -0.06600
H1001       H  0.84738318  0.83737557  0.64924478     0.06770
C1002       C  0.85330291  0.67727657  0.67151830    -0.06950
Co1003     Co  0.71742528  0.81529635  0.74822988     0.74180
N1004       N  0.79841477  0.82431668  0.69729375    -0.26130
Co1005     Co  0.82344377  0.78093871  0.74351855     0.74070
C1006       C  0.87563172  0.71350399  0.64872706     0.42490
N1007       N  0.74631303  0.65059041  0.70795113     0.00890
N1008       N  0.83975959  0.73808051  0.69995328     0.01000
N1009       N  0.76168840  0.85897844  0.82880278    -0.46970
H1010       H  0.66226954  0.84075362  0.65384565     0.06760
N1011       N  0.75759255  0.83755815  0.70116505     0.01290
N1012       N  0.84712804  0.73775171  0.78974043     0.01030
C1013       C  0.88222998  0.70881449  0.84099234     0.42630
N1014       N  0.70504760  0.66347467  0.70543877    -0.25580
C1015       C  0.65568855  0.81522496  0.82126205    -0.06500
N1016       N  0.63872537  0.73732027  0.67209442    -0.46690
N1017       N  0.87939729  0.74500340  0.81652144    -0.46910
C1018       C  0.62340507  0.78602914  0.83936696     0.42400
N1019       N  0.76490151  0.83598978  0.79403897     0.01270
N1020       N  0.70293323  0.66639582  0.79747917    -0.25600
N1021       N  0.67375633  0.79097467  0.70196945    -0.26100
N1022       N  0.74352495  0.65135481  0.79969475     0.00910
H1023       H  0.64437818  0.65576005  0.83403140     0.06800
H1024       H  0.84590707  0.64396530  0.83516869     0.06840
N1025       N  0.80549918  0.82226382  0.78881728    -0.26150
N1026       N  0.83129027  0.69612939  0.70301728    -0.25760
N1027       N  0.65972498  0.75199409  0.79394817     0.01280
C1028       C  0.77783845  0.86766899  0.64329366     0.42670
C1029       C  0.68740570  0.64586352  0.67095849    -0.07010
N1030       N  0.83088356  0.69817838  0.79419502    -0.25760
H1031       H  0.85452930  0.64293607  0.66607011     0.06820
N1032       N  0.74416305  0.86302030  0.66999692    -0.46980
H1033       H  0.65418495  0.65069011  0.65971560     0.06810
C1034       C  0.70867231  0.62152620  0.85193646     0.42510
C1035       C  0.65723203  0.80798138  0.66571954    -0.06510
Co1036     Co  0.68135919  0.70742099  0.75026531     0.73820
N1037       N  0.75861045  0.62616197  0.67708610    -0.46700
C1038       C  0.80300057  0.85924850  0.84626517     0.42780
N1039       N  0.62675941  0.74732889  0.82087577    -0.46690
Co1040     Co  0.78869479  0.67278535  0.75181414     0.73890
C1041       C  0.85034606  0.67780216  0.82618429    -0.07020
C1042       C  0.81472154  0.84240832  0.66153410    -0.06580
N1043       N  0.67605824  0.79173435  0.79333782    -0.26110
N1044       N  0.86507936  0.74936728  0.66856733    -0.46870
H1045       H  0.86600105  0.82830493  0.82296270     0.06780
C1046       C  0.67900533  0.64982370  0.82888036    -0.06990
Cl1047     Cl  0.75259756  0.74400784  0.74881628    -0.49990
C1048       C  0.72378538  0.62175889  0.65185098     0.42540
H1049       H  0.65985135  0.84974922  0.82508899     0.06750
N1050       N  0.74826203  0.62292434  0.83175297    -0.46700
C1051       C  0.63383353  0.72554070  0.35308707     0.42390
N1052       N  0.66091906  0.75088176  0.29606945     0.01280
C1053       C  0.82467257  0.67027094  0.17129362    -0.06600
H1054       H  0.84567546  0.66091305  0.34312852     0.06770
C1055       C  0.85215116  0.81545641  0.33343857    -0.06950
Co1056     Co  0.71429127  0.68764292  0.24709676     0.74180
N1057       N  0.79672406  0.67498391  0.29532827    -0.26130
Co1058     Co  0.82136196  0.72060672  0.25039149     0.74070
C1059       C  0.87588195  0.77699035  0.35143586     0.42490
N1060       N  0.74670726  0.84798096  0.29727856     0.00890
N1061       N  0.84129724  0.75970957  0.29606971     0.01000
N1062       N  0.75461466  0.64651483  0.16435046    -0.46970
H1063       H  0.65895163  0.65654816  0.34000825     0.06760
N1064       N  0.75555698  0.66236565  0.29179316     0.01290
N1065       N  0.84363429  0.76657072  0.20609893     0.01030
C1066       C  0.87041090  0.79743843  0.15159914     0.42630
N1067       N  0.70487502  0.83668427  0.29817352    -0.25580
C1068       C  0.64919744  0.69127641  0.17737268    -0.06500
N1069       N  0.63829514  0.76138450  0.32904976    -0.46690
N1070       N  0.87003873  0.75980556  0.17406089    -0.46910
C1071       C  0.61401755  0.71990026  0.16430257     0.42400
N1072       N  0.75956033  0.66903852  0.19920101     0.01270
N1073       N  0.70155912  0.83869202  0.20685795    -0.25600
N1074       N  0.67206326  0.70950503  0.29555256    -0.26100
N1075       N  0.74227713  0.85381277  0.20563522     0.00910
H1076       H  0.64280055  0.85190197  0.17123095     0.06800
H1077       H  0.83805090  0.86261082  0.16548806     0.06840
N1078       N  0.80042644  0.68267609  0.20322875    -0.26150
N1079       N  0.83153071  0.80117218  0.29855308    -0.25760
N1080       N  0.65557216  0.75339545  0.20660521     0.01280
C1081       C  0.77608149  0.63093167  0.34909565     0.42670
C1082       C  0.68649281  0.85536260  0.33150465    -0.07010
N1083       N  0.82891221  0.80679394  0.20631544    -0.25760
H1084       H  0.85064573  0.84806958  0.34486473     0.06820
N1085       N  0.74216207  0.63657739  0.32272033    -0.46980
H1086       H  0.65229977  0.85285136  0.34028865     0.06810
C1087       C  0.70725515  0.88702510  0.15531697     0.42510
C1088       C  0.65523955  0.69024354  0.33058920    -0.06510
Co1089     Co  0.67984749  0.79536985  0.25185268     0.73820
N1090       N  0.75870937  0.87238491  0.32831822    -0.46700
C1091       C  0.79480701  0.64735581  0.14497386     0.42780
N1092       N  0.61927085  0.75802547  0.18366885    -0.46690
Co1093     Co  0.78823232  0.82878047  0.25176545     0.73890
C1094       C  0.84420776  0.82876140  0.17317842    -0.07020
C1095       C  0.81308264  0.65606116  0.33074683    -0.06580
N1096       N  0.67210808  0.71400943  0.20423619    -0.26110
N1097       N  0.86667493  0.74481435  0.32608151    -0.46870
H1098       H  0.85934115  0.67687464  0.16681219     0.06780
C1099       C  0.67753240  0.85734509  0.17659769    -0.06990
Cl1100     Cl  0.75081389  0.75828190  0.25000308    -0.49990
C1101       C  0.72296035  0.87839401  0.35187534     0.42540
H1102       H  0.65271236  0.65681648  0.17284057     0.06750
N1103       N  0.74700018  0.88419580  0.17526255    -0.46700
O1104       O  0.54094117  0.89558403  0.97684963    -0.80210
O1105       O  0.53444336  0.61085116  0.03039809    -0.80230
O1106       O  0.55185599  0.52451771  0.92860488    -0.80240
O1107       O  0.54737985  0.98120724  0.07735220    -0.80180
O1108       O  0.57329838  0.54488095  0.99148939    -0.80300
O1109       O  0.57417265  0.96413555  0.01569316    -0.80220
O1110       O  0.51020669  0.56713182  0.08147039    -0.80210
O1111       O  0.51813565  0.93761201  0.92395592    -0.80240
C1112       C  0.53519694  0.90144280  0.93839997     1.09480
C1113       C  0.52612182  0.60440817  0.06831218     1.09370
C1114       C  0.58180371  0.53783496  0.95325887     1.09510
C1115       C  0.57978849  0.97035625  0.05444828     1.09380
O1116       O  0.01043728  0.91089302  0.04718515    -0.80210
O1117       O  0.00991022  0.59555400  0.95808656    -0.80280
O1118       O  0.93190406  0.97520112  0.93687896    -0.80220
O1119       O  0.92696020  0.52683132  0.06201827    -0.80200
O1120       O  0.94902042  0.58217687  0.02350618    -0.80250
O1121       O  0.95416148  0.92112738  0.97732933    -0.80220
O1122       O  0.95525220  0.94793606  0.06717945    -0.80180
O1123       O  0.96051128  0.55607439  0.92886584    -0.80250
Co1124     Co  0.51565410  0.94570777  0.99500734     1.51530
Co1125     Co  0.51262720  0.56023204  0.00951105     1.51570
Co1126     Co  0.49071923  0.99941390  0.93550183     1.51570
Co1127     Co  0.48584954  0.50467214  0.06640379     1.51470
O1128       O  0.49023569  0.50267483  0.00101227    -1.42140
C1129       C  0.97424288  0.91216896  0.06483723     1.09410
C1130       C  0.97945535  0.59194163  0.93259870     1.09500
C1131       C  0.92455488  0.93856688  0.95350944     1.09440
C1132       C  0.91896081  0.56330055  0.04580438     1.09410
C1133       C  0.69110648  0.91971192  0.12394375    -0.05530
C1134       C  0.66800479  0.95565956  0.13844772    -0.32960
C1135       C  0.63414535  0.97531700  0.11451659     0.36290
C1136       C  0.62302222  0.95944277  0.07491833    -0.05890
C1137       C  0.64977948  0.92684690  0.05849121    -0.32860
C1138       C  0.68317417  0.90683653  0.08276279     0.36190
H1139       H  0.67294687  0.96563240  0.17024518     0.16560
O1140       O  0.61056137  0.00854126  0.13112176    -0.60360
H1141       H  0.64213416  0.91386838  0.02828338     0.16580
O1142       O  0.70411421  0.87116146  0.06779439    -0.60460
H1143       H  0.73242580  0.88231900  0.05640296     0.43570
H1144       H  0.59045317  0.99448285  0.15181485     0.43530
C1145       C  0.57334554  0.70273276  0.14682834    -0.05530
C1146       C  0.56442691  0.71330466  0.10520671    -0.32960
C1147       C  0.54471012  0.68274613  0.07992117     0.36290
C1148       C  0.53461157  0.64062302  0.09644932    -0.05890
C1149       C  0.53656654  0.63312951  0.13964330    -0.32860
C1150       C  0.55559689  0.66424599  0.16502716     0.36190
H1151       H  0.57747051  0.74300796  0.09104311     0.16560
O1152       O  0.53928595  0.69316010  0.03833760    -0.60360
H1153       H  0.52693612  0.60197940  0.15331982     0.16580
O1154       O  0.56105732  0.65508664  0.20691986    -0.60460
H1155       H  0.58247318  0.63085645  0.20895263     0.43570
H1156       H  0.51273076  0.71180491  0.03689129     0.43530
C1157       C  0.81062793  0.62593815  0.10670219    -0.05530
C1158       C  0.81251396  0.58069737  0.10632769    -0.32960
C1159       C  0.84467571  0.55964296  0.08267070     0.36290
C1160       C  0.87615812  0.58395216  0.05846865    -0.05890
C1161       C  0.87030642  0.62904419  0.05490282    -0.32860
C1162       C  0.83780670  0.64987773  0.07840392     0.36190
H1163       H  0.79234885  0.56160225  0.12787821     0.16560
O1164       O  0.84695291  0.51518343  0.08603007    -0.60360
H1165       H  0.89335838  0.64871161  0.03690657     0.16580
O1166       O  0.83619773  0.69435274  0.07703676    -0.60460
H1167       H  0.81261249  0.70179059  0.05663312     0.43570
H1168       H  0.85975926  0.50858821  0.11401168     0.43530
C1169       C  0.89998473  0.80963776  0.11776270    -0.05530
C1170       C  0.94525755  0.81095448  0.12624073    -0.32960
C1171       C  0.97160813  0.84237073  0.10616001     0.36290
C1172       C  0.95191544  0.87243113  0.07814036    -0.05890
C1173       C  0.90832457  0.86670693  0.06534235    -0.32860
C1174       C  0.88232139  0.83500121  0.08473740     0.36190
H1175       H  0.95892906  0.79165680  0.15192350     0.16560
O1176       O  0.01468519  0.84711061  0.11814918    -0.60360
H1177       H  0.89355114  0.88883073  0.04243827     0.16580
O1178       O  0.83845933  0.83207137  0.07456413    -0.60460
H1179       H  0.82442546  0.85827685  0.08582982     0.43570
H1180       H  0.03162248  0.82796363  0.09978225     0.43530
C1181       C  0.58603979  0.80207526  0.86251481    -0.05530
C1182       C  0.56145397  0.83589497  0.84363235    -0.32960
C1183       C  0.54263137  0.86794684  0.86777574     0.36290
C1184       C  0.54776955  0.86560625  0.91136415    -0.05890
C1185       C  0.56732797  0.82829351  0.93008104    -0.32860
C1186       C  0.58652623  0.79676154  0.90589683     0.36190
H1187       H  0.56124214  0.84020944  0.80995234     0.16560
O1188       O  0.52169506  0.90237403  0.84833295    -0.60360
H1189       H  0.57068183  0.82481173  0.96365746     0.16580
O1190       O  0.61105487  0.76447986  0.92491676    -0.60460
H1191       H  0.59098238  0.73911129  0.92727299     0.43570
H1192       H  0.54545467  0.92317689  0.84048045     0.43530
C1193       C  0.62560009  0.55009673  0.93482198    -0.05530
C1194       C  0.64794542  0.58693656  0.94889295    -0.32960
C1195       C  0.68076872  0.60749532  0.92433342     0.36290
C1196       C  0.69262097  0.59096175  0.88535174    -0.05890
C1197       C  0.67393326  0.55142289  0.87364246    -0.32860
C1198       C  0.64082462  0.53102536  0.89792681     0.36190
H1199       H  0.63695776  0.60245811  0.97689168     0.16560
O1200       O  0.69721068  0.64667290  0.93634349    -0.60360
H1201       H  0.68167921  0.53863169  0.84341905     0.16580
O1202       O  0.62086598  0.49453493  0.88324431    -0.60460
H1203       H  0.63451709  0.46994644  0.89913282     0.43570
H1204       H  0.72474488  0.63953208  0.95171400     0.43530
C1205       C  0.96506176  0.62999674  0.90880455    -0.05530
C1206       C  0.96861277  0.63064813  0.86542190    -0.32960
C1207       C  0.94766942  0.66316167  0.84182822     0.36290
C1208       C  0.92185027  0.69398993  0.86206321    -0.05890
C1209       C  0.92303892  0.69642796  0.90546767    -0.32860
C1210       C  0.94526675  0.66470192  0.92904192     0.36190
H1211       H  0.98532109  0.60465463  0.84987281     0.16560
O1212       O  0.94811585  0.66176318  0.79904876    -0.60360
H1213       H  0.90281642  0.71983137  0.92114264     0.16580
O1214       O  0.94306998  0.66503837  0.97169051    -0.60460
H1215       H  0.96942959  0.68151636  0.98034234     0.43570
H1216       H  0.92820225  0.63752632  0.79187056     0.43530
C1217       C  0.81979252  0.87748443  0.88605739    -0.05530
C1218       C  0.84943867  0.85187319  0.91030094    -0.32960
C1219       C  0.88074338  0.87062707  0.93693925     0.36290
C1220       C  0.88309243  0.91603840  0.93989439    -0.05890
C1221       C  0.84960784  0.94102865  0.91982903    -0.32860
C1222       C  0.81861402  0.92223929  0.89286196     0.36190
H1223       H  0.85127410  0.81727515  0.90544140     0.16560
O1224       O  0.91226380  0.84468664  0.95543424    -0.60360
H1225       H  0.84998985  0.97605389  0.92181737     0.16580
O1226       O  0.79066749  0.94856105  0.86999142    -0.60460
H1227       H  0.80774853  0.95815284  0.84502641     0.43570
H1228       H  0.89763966  0.83090635  0.98008614     0.43530
C1229       C  0.73725150  0.96499460  0.45316976    -0.05530
C1230       C  0.69492052  0.95628152  0.43755811    -0.32960
C1231       C  0.68864814  0.92586804  0.40632265     0.36290
C1232       C  0.72521183  0.90414498  0.39011784    -0.05890
C1233       C  0.76697467  0.91077835  0.40816056    -0.32860
C1234       C  0.77311092  0.94086948  0.43936871     0.36190
H1235       H  0.66696890  0.97469647  0.44814272     0.16560
O1236       O  0.64749214  0.92053436  0.38960324    -0.60360
H1237       H  0.79558836  0.89388061  0.39679202     0.16580
O1238       O  0.81471471  0.94855360  0.45416664    -0.60460
H1239       H  0.82038535  0.92482470  0.47503411     0.43570
H1240       H  0.63272117  0.89892280  0.40838431     0.43530
C1241       C  0.77081033  0.60614983  0.38928136    -0.05530
C1242       C  0.72778353  0.59971960  0.40476936    -0.32960
C1243       C  0.71901613  0.56952801  0.43710764     0.36290
C1244       C  0.75345297  0.54499948  0.45471256    -0.05890
C1245       C  0.79701224  0.55420904  0.44220905    -0.32860
C1246       C  0.80590052  0.58478487  0.40983368     0.36190
H1247       H  0.70022570  0.61657778  0.39037812     0.16560
O1248       O  0.67630827  0.56180198  0.44899980    -0.60360
H1249       H  0.82396159  0.53555503  0.45568198     0.16580
O1250       O  0.84831434  0.59031373  0.39612738    -0.60460
H1251       H  0.86079688  0.61337876  0.41356862     0.43570
H1252       H  0.66855011  0.58624057  0.46699137     0.43530
C1253       C  0.75445253  0.96044805  0.54414659    -0.05530
C1254       C  0.79754433  0.95468729  0.55963459    -0.32960
C1255       C  0.80725097  0.92162157  0.58930192     0.36290
C1256       C  0.77337085  0.89431499  0.60431219    -0.05890
C1257       C  0.73129911  0.89774199  0.58592036    -0.32860
C1258       C  0.72163844  0.93061330  0.55620782     0.36190
H1259       H  0.82324961  0.97735731  0.55028618     0.16560
O1260       O  0.84867400  0.91915637  0.60624198    -0.60360
H1261       H  0.70499293  0.87630986  0.59636973     0.16580
O1262       O  0.67978789  0.93435014  0.54028634    -0.60460
H1263       H  0.66082265  0.94172454  0.56419112     0.43570
H1264       H  0.86515410  0.89947596  0.58803140     0.43530
C1265       C  0.72671863  0.59809932  0.61224099    -0.05530
C1266       C  0.68960404  0.57793226  0.59534645    -0.32960
C1267       C  0.69422523  0.54895144  0.56257506     0.36290
C1268       C  0.73629553  0.54007041  0.54631704    -0.05890
C1269       C  0.77262389  0.56307530  0.56056910    -0.32860
C1270       C  0.76822782  0.59172474  0.59326622     0.36190
H1271       H  0.65746757  0.58252880  0.60910589     0.16560
O1272       O  0.65795301  0.52706873  0.54866685    -0.60360
H1273       H  0.80502196  0.55695470  0.54795800     0.16580
O1274       O  0.80512021  0.61267130  0.60702407    -0.60460
H1275       H  0.82288639  0.58992397  0.62168319     0.43570
H1276       H  0.64091089  0.54872762  0.53187040     0.43530
C1277       C  0.90614916  0.76847779  0.38745786    -0.05530
C1278       C  0.91145668  0.79713186  0.42043848    -0.32960
C1279       C  0.94116594  0.78712555  0.45342434     0.36290
C1280       C  0.96482144  0.74756149  0.45408816    -0.05890
C1281       C  0.95709754  0.71841406  0.42261497    -0.32860
C1282       C  0.92973431  0.72868368  0.38923988     0.36190
H1283       H  0.89361676  0.82752061  0.42011820     0.16560
O1284       O  0.94817819  0.81687484  0.48369124    -0.60360
H1285       H  0.97467453  0.68802552  0.42213099     0.16580
O1286       O  0.92939814  0.70059469  0.35675370    -0.60460
H1287       H  0.91669945  0.67305620  0.36817076     0.43570
H1288       H  0.97393807  0.83420272  0.47397477     0.43530
C1289       C  0.61013382  0.72663994  0.39323274    -0.05530
C1290       C  0.59099973  0.68917590  0.41118831    -0.32960
C1291       C  0.55992582  0.69276196  0.44327879     0.36290
C1292       C  0.54649313  0.73421071  0.45577333    -0.05890
C1293       C  0.56898414  0.77090562  0.44111916    -0.32860
C1294       C  0.60159099  0.76724829  0.41115237     0.36190
H1295       H  0.59807109  0.65760928  0.39887844     0.16560
O1296       O  0.53998878  0.65607432  0.45958150    -0.60360
H1297       H  0.55988854  0.80274288  0.45165472     0.16580
O1298       O  0.62302969  0.80426184  0.39789494    -0.60460
H1299       H  0.65033037  0.80514956  0.41488175     0.43570
H1300       H  0.56259393  0.64179415  0.47758957     0.43530
C1301       C  0.91029259  0.71614979  0.61654851    -0.05530
C1302       C  0.90941733  0.69156509  0.58043406    -0.32960
C1303       C  0.93905800  0.70110747  0.54743454     0.36290
C1304       C  0.96854295  0.73672696  0.55000113    -0.05890
C1305       C  0.96785193  0.76136648  0.58590566    -0.32860
C1306       C  0.94137949  0.75004507  0.61943244     0.36190
H1307       H  0.88578407  0.66542685  0.57765388     0.16560
O1308       O  0.94059963  0.67415760  0.51422352    -0.60360
H1309       H  0.98982833  0.78865500  0.58934514     0.16580
O1310       O  0.94635109  0.77282858  0.65530940    -0.60460
H1311       H  0.96624032  0.75489189  0.67329594     0.43570
H1312       H  0.91292189  0.67966755  0.49847696     0.43530
C1313       C  0.61198167  0.76665092  0.60526983    -0.05530
C1314       C  0.60242333  0.72398894  0.59325805    -0.32960
C1315       C  0.57093779  0.71597860  0.56293949     0.36290
C1316       C  0.55003392  0.75081703  0.54241562    -0.05890
C1317       C  0.56418254  0.79351396  0.54961125    -0.32860
C1318       C  0.59473332  0.80167519  0.58143330     0.36190
H1319       H  0.61659092  0.69626374  0.60978035     0.16560
O1320       O  0.55834968  0.67406242  0.55582185    -0.60360
H1321       H  0.54799103  0.82060549  0.53372693     0.16580
O1322       O  0.60383036  0.84363946  0.59151269    -0.60460
H1323       H  0.62755131  0.85314767  0.57208037     0.43570
H1324       H  0.53587766  0.66690654  0.57737278     0.43530
loop_ 
_geom_bond_atom_site_label_1 
_geom_bond_atom_site_label_2 
_geom_bond_distance 
_geom_bond_site_symmetry_2 
_ccdc_geom_bond_type 
C1          C311   1.495       .  S
C1          C985   1.486       .  S
C1          C664   1.349       .  D
C2          C299   1.483       .  S
C2          C949   1.491   1_455  S
C2          C663   1.349       .  D
C3          C260   1.488       .  S
C3          C606   1.484       .  S
C3          C335   1.353       .  D
C4          C251   1.487       .  S
C4          C567   1.483   1_545  S
C4          C334   1.353       .  D
C5           N23   1.336       .  A
C5           C42   1.477       .  S
C5          C320   1.480       .  S
N6           N23   1.311       .  A
N6           N28   1.321       .  A
N6          Co43   2.030       .  S
C7           N32   1.328       .  A
C7           C45   1.437       .  S
C7           H52   1.081       .  S
H8           C49   1.081       .  S
C9           N33   1.358       .  A
C9           C13   1.480       .  S
C9           H38   1.079       .  S
Co10         N28   2.139       .  S
Co10         N18   2.044       .  S
Co10         N50   2.034       .  S
Co10         N26   2.165       .  S
Co10        Cl54   2.445       .  S
N11          C49   1.354       .  A
N11          N18   1.313       .  A
N11         Co12   2.108       .  S
Co12         N15   2.015       .  S
Co12         N32   2.036       .  S
Co12         N19   2.090       .  S
Co12        Cl54   2.435       .  S
C13          N51   1.332       .  A
C13         C308   1.476       .  S
N14          N21   1.317       .  A
N14          N44   1.317       .  A
N14         Co47   2.037       .  S
N15          N33   1.319       .  A
N15          N51   1.306       .  A
N16          C45   1.373       .  A
N16          N26   1.343       .  A
H17          C42   1.079       .  S
N18          N39   1.317       .  A
N19          N37   1.319       .  A
N19          N24   1.325       .  A
C20          N24   1.347       .  A
C20          C48   1.448       .  S
C20         C215   1.447       .  S
N21          C36   1.355       .  A
N21         Co43   2.132       .  S
C22          N50   1.324       .  A
C22          C25   1.440       .  S
C22          H56   1.082       .  S
C25          N46   1.352       .  A
C25         C188   1.453       .  S
N26          N32   1.317       .  A
N27          C53   1.332       .  A
N27          N29   1.319       .  A
N27         Co43   2.051       .  S
N28          C42   1.356       .  A
N29          N57   1.338       .  A
N29         Co47   2.149       .  S
H30          C53   1.082       .  S
H31          C48   1.082       .  S
N33         Co47   2.139       .  S
N34          N46   1.328       .  A
N34          N50   1.320       .  A
N34         Co43   2.099       .  S
C35          N39   1.340       .  A
C35          C49   1.475       .  S
C35         C263   1.481       .  S
C36          C55   1.477       .  S
C36          H40   1.080       .  S
N37          C48   1.325       .  A
N37         Co47   2.038       .  S
C41          N57   1.367       .  A
C41          C53   1.443       .  S
C41         C203   1.488       .  S
Co43        Cl54   2.437       .  S
N44          C55   1.339       .  A
C45         C224   1.498       .  S
Co47        Cl54   2.455       .  S
C55         C272   1.486       .  S
C58          N76   1.335       .  A
C58          C95   1.476       .  S
C58         C296   1.477       .  S
N59          N76   1.311       .  A
N59          N81   1.321       .  A
N59         Co96   2.026       .  S
C60          N85   1.329       .  A
C60          C98   1.436       .  S
C60         H105   1.081       .  S
H61         C102   1.077       .  S
C62          N86   1.365       .  A
C62          C66   1.490       .  S
C62          H91   1.081       .  S
Co63         N81   2.142       .  S
Co63         N71   2.040       .  S
Co63        N103   2.030       .  S
Co63         N79   2.155       .  S
Co63       Cl107   2.445       .  S
N64         C102   1.355       .  A
N64          N71   1.314       .  A
N64         Co65   2.119       .  S
Co65         N68   2.016       .  S
Co65         N85   2.039       .  S
Co65         N72   2.088       .  S
Co65       Cl107   2.439       .  S
C66         N104   1.330       .  A
C66         C284   1.492       .  S
N67          N74   1.317       .  A
N67          N97   1.316       .  A
N67        Co100   2.033       .  S
N68          N86   1.318       .  A
N68         N104   1.305       .  A
N69          C98   1.371       .  A
N69          N79   1.341       .  A
H70          C95   1.079       .  S
N71          N92   1.317       .  A
N72          N90   1.319       .  A
N72          N77   1.326       .  A
C73          N77   1.347       .  A
C73         C101   1.446       .  S
C73         C176   1.450       .  S
N74          C89   1.351       .  A
N74         Co96   2.123       .  S
C75         N103   1.322       .  A
C75          C78   1.441       .  S
C75         H109   1.082       .  S
C78          N99   1.354       .  A
C78         C152   1.460       .  S
N79          N85   1.317       .  A
N80         C106   1.330       .  A
N80          N82   1.321       .  A
N80         Co96   2.045       .  S
N81          C95   1.355       .  A
N82         N110   1.338       .  A
N82        Co100   2.158       .  S
H83         C106   1.082       .  S
H84         C101   1.082       .  S
N86        Co100   2.150       .  S
N87          N99   1.329       .  A
N87         N103   1.319       .  A
N87         Co96   2.104       .  S
C88          N92   1.340       .  A
C88         C102   1.476       .  S
C88         C248   1.487       .  S
C89         C108   1.476       .  S
C89          H93   1.078       .  S
N90         C101   1.327       .  A
N90        Co100   2.045       .  S
C94         N110   1.366       .  A
C94         C106   1.442       .  S
C94         C140   1.486       .  S
Co96       Cl107   2.444       .  S
N97         C108   1.340       .  A
C98         C164   1.492       .  S
Co100      Cl107   2.452       .  S
C108        C239   1.482       .  S
O111        C119   1.253       .  A
O111       Co131   1.838       .  S
O112        C120   1.252       .  A
O112       Co132   1.838       .  S
O113        C121   1.279       .  A
O113       Co464   2.020   1_445  S
O114        C122   1.280       .  A
O114       Co465   2.031   1_455  S
O115        C121   1.278       .  A
O115       Co132   1.994   1_556  S
O116        C122   1.274       .  A
O116       Co131   1.983   1_554  S
O117        C120   1.304       .  A
O117       Co134   2.129   1_455  S
O118        C119   1.303       .  A
O118       Co133   2.124   1_455  S
C119        C191   1.476       .  S
C120        C155   1.478       .  S
C121        C200   1.500       .  S
C122        C143   1.501       .  S
O123        C136   1.239       .  A
O123       Co793   1.967   1_554  S
O124        C137   1.240       .  A
O124       Co794   1.950   1_556  S
O125        C138   1.254       .  A
O125       Co795   1.934       .  S
O126        C139   1.249       .  A
O126       Co796   1.919       .  S
O127        C139   1.288       .  A
O127       Co794   2.102       .  S
O128        C138   1.287       .  A
O128       Co793   2.097       .  S
O129        C136   1.250       .  A
O129      Co1127   1.978       .  S
O130        C137   1.254       .  A
O130      Co1126   1.980   1_545  S
Co131       O785   1.967   1_556  S
Co131       O790   2.097   1_455  S
Co131       O466   1.935   1_456  S
Co132       O786   1.950   1_554  S
Co132       O789   2.102   1_455  S
Co132       O135   1.925   1_455  S
Co133       O444   2.020   1_655  S
Co133       O787   1.934       .  S
Co133      O1123   1.980       .  S
Co133       O466   2.106   1_556  S
Co134       O445   2.031   1_645  S
Co134       O788   1.919       .  S
Co134      O1122   1.978   1_545  S
Co134       O135   2.104       .  S
O135       Co462   1.935   1_644  S
O135       Co464   2.106   1_544  S
C136        C179   1.452       .  S
C137        C212   1.448       .  S
C138        C227   1.507       .  S
C139        C167   1.510       .  S
C140        C141   1.404       .  A
C140        C145   1.410       .  A
C141        H146   1.084       .  S
C141        C142   1.409       .  A
C142        C143   1.414       .  A
C142        O147   1.372       .  S
C143        C144   1.409       .  A
C144        H148   1.083       .  S
C144        C145   1.409       .  A
C145        O149   1.371       .  S
O147        H151   0.992       .  S
O149        H150   0.992       .  S
C152        C153   1.390       .  A
C152        C157   1.413       .  A
C153        H158   1.084       .  S
C153        C154   1.394       .  A
C154        C155   1.421       .  A
C154        O159   1.372       .  S
C155        C156   1.398       .  A
C156        H160   1.083       .  S
C156        C157   1.399       .  A
C157        O161   1.374       .  S
O159        H163   0.992       .  S
O161        H162   0.992       .  S
C164        C165   1.396       .  A
C164        C169   1.417       .  A
C165        H170   1.084       .  S
C165        C166   1.409       .  A
C166        C167   1.429       .  A
C166        O171   1.373       .  S
C167        C168   1.403       .  A
C168        H172   1.081       .  S
C168        C169   1.411       .  A
C169        O173   1.371       .  S
O171        H175   0.993       .  S
O173        H174   0.992       .  S
C176        C177   1.402       .  A
C176        C181   1.404       .  A
C177        H182   1.084       .  S
C177        C178   1.398       .  A
C178        C179   1.405       .  A
C178        O183   1.371       .  S
C179        C180   1.397       .  A
C180        H184   1.084       .  S
C180        C181   1.388       .  A
C181        O185   1.374       .  S
O183        H187   0.992       .  S
O185        H186   0.992       .  S
C188        C189   1.405       .  A
C188        C193   1.396       .  A
C189        H194   1.084       .  S
C189        C190   1.397       .  A
C190        C191   1.406       .  A
C190        O195   1.371       .  S
C191        C192   1.413       .  A
C192        H196   1.083       .  S
C192        C193   1.391       .  A
C193        O197   1.372       .  S
O195        H199   0.992       .  S
O197        H198   0.992       .  S
C200        C201   1.407       .  A
C200        C205   1.416       .  A
C201        H206   1.084       .  S
C201        C202   1.409       .  A
C202        C203   1.412       .  A
C202        O207   1.371       .  S
C203        C204   1.404       .  A
C204        H208   1.084       .  S
C204        C205   1.408       .  A
C205        O209   1.372   1_545  S
O207        H211   0.992       .  S
O209        H210   0.992       .  S
C212        C213   1.395       .  A
C212        C217   1.405       .  A
C213        H218   1.084       .  S
C213        C214   1.392       .  A
C214        C215   1.408       .  A
C214        O219   1.374       .  S
C215        C216   1.396       .  A
C216        H220   1.084       .  S
C216        C217   1.393       .  A
C217        O221   1.370       .  S
O219        H223   0.992       .  S
O221        H222   0.991       .  S
C224        C225   1.415       .  A
C224        C229   1.404       .  A
C225        H230   1.084       .  S
C225        C226   1.411       .  A
C226        C227   1.407       .  A
C226        O231   1.371       .  S
C227        C228   1.419       .  A
C228        H232   1.083       .  S
C228        C229   1.412       .  A
C229        O233   1.372       .  S
O231        H235   0.991       .  S
O233        H234   0.992       .  S
C236        C335   1.483       .  S
C236        C237   1.407       .  A
C236        C241   1.400       .  A
C237        H242   1.083       .  S
C237        C238   1.405       .  A
C238        C239   1.406       .  A
C238        O243   1.370       .  S
C239        C240   1.410       .  A
C240        H244   1.084       .  S
C240        C241   1.397       .  A
C241        O245   1.371       .  S
O243        H247   0.992       .  S
O245        H246   0.992       .  S
C248        C249   1.410       .  A
C248        C253   1.406       .  A
C249        H254   1.081       .  S
C249        C250   1.398       .  A
C250        C251   1.400       .  A
C250        O255   1.371       .  S
C251        C252   1.409       .  A
C252        H256   1.083       .  S
C252        C253   1.407       .  A
C253        O257   1.370       .  S
O255        H259   0.992       .  S
O257        H258   0.992       .  S
C260        C261   1.408       .  A
C260        C265   1.401       .  A
C261        H266   1.083       .  S
C261        C262   1.405       .  A
C262        C263   1.404       .  A
C262        O267   1.370       .  S
C263        C264   1.409       .  A
C264        H268   1.083       .  S
C264        C265   1.401       .  A
C265        O269   1.372       .  S
O267        H271   0.992       .  S
O269        H270   0.992       .  S
C272        C273   1.402       .  A
C272        C277   1.418       .  A
C273        H278   1.083       .  S
C273        C274   1.407       .  A
C274        C275   1.411       .  A
C274        O279   1.371       .  S
C275        C334   1.484       .  S
C275        C276   1.394       .  A
C276        H280   1.084       .  S
C276        C277   1.398       .  A
C277        O281   1.370       .  S
O279        H283   0.991       .  S
O281        H282   0.992       .  S
C284        C285   1.407       .  A
C284        C289   1.422       .  A
C285        H290   1.083       .  S
C285        C286   1.416       .  A
C286        C287   1.416       .  A
C286        O291   1.371       .  S
C287        C664   1.491       .  S
C287        C288   1.390       .  A
C288        H292   1.080       .  S
C288        C289   1.383       .  A
C289        O293   1.374       .  S
O291        H295   0.992       .  S
O293        H294   0.992       .  S
C296        C297   1.400       .  A
C296        C301   1.418       .  A
C297        H302   1.083       .  S
C297        C298   1.405       .  A
C298        C299   1.412       .  A
C298        O303   1.372       .  S
C299        C300   1.390       .  A
C300        H304   1.084       .  S
C300        C301   1.388       .  A
C301        O305   1.369       .  S
O303        H307   0.991       .  S
O305        H306   0.992       .  S
C308        C309   1.403       .  A
C308        C313   1.411       .  A
C309        H314   1.083       .  S
C309        C310   1.414       .  A
C310        C311   1.419       .  A
C310        O315   1.371       .  S
C311        C312   1.398       .  A
C312        H316   1.081       .  S
C312        C313   1.380       .  A
C313        O317   1.374       .  S
O315        H319   0.992       .  S
O317        H318   0.992       .  S
C320        C321   1.411       .  A
C320        C325   1.406       .  A
C321        H326   1.082       .  S
C321        C322   1.389       .  A
C322        C323   1.396       .  A
C322        O327   1.372       .  S
C323        C663   1.486       .  S
C323        C324   1.409       .  A
C324        H328   1.084       .  S
C324        C325   1.405       .  A
C325        O329   1.370       .  S
O327        H331   0.992       .  S
O329        H330   0.991       .  S
C332        C642   1.495       .  S
C332       C1316   1.486       .  S
C332        C995   1.349       .  D
C333       C1280   1.491   1_455  S
C333        C630   1.483       .  S
C333        C994   1.349       .  D
C334        C591   1.488   1_545  S
C335        C582   1.487       .  S
C336        N354   1.336       .  A
C336        C373   1.477       .  S
C336        C651   1.480       .  S
N337        N354   1.311       .  A
N337        N359   1.321       .  A
N337       Co374   2.030       .  S
C338        N363   1.328       .  A
C338        C376   1.437       .  S
C338        H383   1.081       .  S
H339        C380   1.081       .  S
C340        N364   1.358       .  A
C340        C344   1.480       .  S
C340        H369   1.079       .  S
Co341       N359   2.139       .  S
Co341       N349   2.044       .  S
Co341       N381   2.034       .  S
Co341       N357   2.165       .  S
Co341      Cl385   2.445       .  S
N342        C380   1.354       .  A
N342        N349   1.313       .  A
N342       Co343   2.108       .  S
Co343       N346   2.015       .  S
Co343       N363   2.036       .  S
Co343       N350   2.090       .  S
Co343      Cl385   2.435       .  S
C344        N382   1.332       .  A
C344        C639   1.476       .  S
N345        N352   1.317       .  A
N345        N375   1.317       .  A
N345       Co378   2.037       .  S
N346        N364   1.319       .  A
N346        N382   1.306       .  A
N347        C376   1.373       .  A
N347        N357   1.343       .  A
H348        C373   1.079       .  S
N349        N370   1.317       .  A
N350        N368   1.319       .  A
N350        N355   1.325       .  A
C351        N355   1.347       .  A
C351        C379   1.448       .  S
C351        C546   1.447       .  S
N352        C367   1.355       .  A
N352       Co374   2.132       .  S
C353        N381   1.324       .  A
C353        C356   1.440       .  S
C353        H387   1.082       .  S
C356        N377   1.352       .  A
C356        C519   1.453       .  S
N357        N363   1.317       .  A
N358        C384   1.332       .  A
N358        N360   1.319       .  A
N358       Co374   2.051       .  S
N359        C373   1.356       .  A
N360        N388   1.338       .  A
N360       Co378   2.149       .  S
H361        C384   1.082       .  S
H362        C379   1.082       .  S
N364       Co378   2.139       .  S
N365        N377   1.328       .  A
N365        N381   1.320       .  A
N365       Co374   2.099       .  S
C366        N370   1.340       .  A
C366        C380   1.475       .  S
C366        C594   1.481       .  S
C367        C386   1.477       .  S
C367        H371   1.080       .  S
N368        C379   1.325       .  A
N368       Co378   2.038       .  S
C372        N388   1.367       .  A
C372        C384   1.443       .  S
C372        C534   1.488       .  S
Co374      Cl385   2.437       .  S
N375        C386   1.339       .  A
C376        C555   1.498       .  S
Co378      Cl385   2.455       .  S
C386        C603   1.486       .  S
C389        N407   1.335       .  A
C389        C426   1.476       .  S
C389        C627   1.477       .  S
N390        N407   1.311       .  A
N390        N412   1.321       .  A
N390       Co427   2.026       .  S
C391        N416   1.329       .  A
C391        C429   1.436       .  S
C391        H436   1.081       .  S
H392        C433   1.077       .  S
C393        N417   1.365       .  A
C393        C397   1.490       .  S
C393        H422   1.081       .  S
Co394       N412   2.142       .  S
Co394       N402   2.040       .  S
Co394       N434   2.030       .  S
Co394       N410   2.155       .  S
Co394      Cl438   2.445       .  S
N395        C433   1.355       .  A
N395        N402   1.314       .  A
N395       Co396   2.119       .  S
Co396       N399   2.016       .  S
Co396       N416   2.039       .  S
Co396       N403   2.088       .  S
Co396      Cl438   2.439       .  S
C397        N435   1.330       .  A
C397        C615   1.492       .  S
N398        N405   1.317       .  A
N398        N428   1.316       .  A
N398       Co431   2.033       .  S
N399        N417   1.318       .  A
N399        N435   1.305       .  A
N400        C429   1.371       .  A
N400        N410   1.341       .  A
H401        C426   1.079       .  S
N402        N423   1.317       .  A
N403        N421   1.319       .  A
N403        N408   1.326       .  A
C404        N408   1.347       .  A
C404        C432   1.446       .  S
C404        C507   1.450       .  S
N405        C420   1.351       .  A
N405       Co427   2.123       .  S
C406        N434   1.322       .  A
C406        C409   1.441       .  S
C406        H440   1.082       .  S
C409        N430   1.354       .  A
C409        C483   1.460       .  S
N410        N416   1.317       .  A
N411        C437   1.330       .  A
N411        N413   1.321       .  A
N411       Co427   2.045       .  S
N412        C426   1.355       .  A
N413        N441   1.338       .  A
N413       Co431   2.158       .  S
H414        C437   1.082       .  S
H415        C432   1.082       .  S
N417       Co431   2.150       .  S
N418        N430   1.329       .  A
N418        N434   1.319       .  A
N418       Co427   2.104       .  S
C419        N423   1.340       .  A
C419        C433   1.476       .  S
C419        C579   1.487       .  S
C420        C439   1.476       .  S
C420        H424   1.078       .  S
N421        C432   1.327       .  A
N421       Co431   2.045       .  S
C425        N441   1.366       .  A
C425        C437   1.442       .  S
C425        C471   1.486       .  S
Co427      Cl438   2.444       .  S
N428        C439   1.340       .  A
C429        C495   1.492       .  S
Co431      Cl438   2.452       .  S
C439        C570   1.482       .  S
O442        C450   1.253       .  A
O442       Co462   1.838       .  S
O443        C451   1.252       .  A
O443       Co463   1.838       .  S
O444        C452   1.279       .  A
O445        C453   1.280       .  A
O446        C452   1.278       .  A
O446       Co463   1.994   1_556  S
O447        C453   1.274       .  A
O447       Co462   1.983   1_554  S
O448        C451   1.304       .  A
O448       Co465   2.129   1_455  S
O449        C450   1.303       .  A
O449       Co464   2.124   1_455  S
C450        C522   1.476       .  S
C451        C486   1.478       .  S
C452        C531   1.500       .  S
C453        C474   1.501       .  S
O454        C467   1.239       .  A
O454      Co1124   1.967   1_554  S
O455        C468   1.240       .  A
O455      Co1125   1.950   1_556  S
O456        C469   1.254       .  A
O456      Co1126   1.934       .  S
O457        C470   1.249       .  A
O457      Co1127   1.919       .  S
O458        C470   1.288       .  A
O458      Co1125   2.102       .  S
O459        C469   1.287       .  A
O459      Co1124   2.097       .  S
O460        C467   1.250       .  A
O460       Co796   1.978   1_565  S
O461        C468   1.254       .  A
O461       Co795   1.980       .  S
Co462      O1116   1.967   1_556  S
Co462      O1121   2.097   1_455  S
Co463      O1117   1.950   1_554  S
Co463      O1120   2.102   1_455  S
Co463       O466   1.925   1_455  S
Co464      O1118   1.934       .  S
Co464       O792   1.980   1_565  S
Co465      O1119   1.919       .  S
Co465       O791   1.978       .  S
Co465       O466   2.104       .  S
C467        C510   1.452       .  S
C468        C543   1.448       .  S
C469        C558   1.507       .  S
C470        C498   1.510       .  S
C471        C472   1.404       .  A
C471        C476   1.410       .  A
C472        H477   1.084       .  S
C472        C473   1.409       .  A
C473        C474   1.414       .  A
C473        O478   1.372   1_565  S
C474        C475   1.409       .  A
C475        H479   1.083       .  S
C475        C476   1.409       .  A
C476        O480   1.371       .  S
O478        H482   0.992   1_545  S
O480        H481   0.992       .  S
C483        C484   1.390       .  A
C483        C488   1.413       .  A
C484        H489   1.084       .  S
C484        C485   1.394       .  A
C485        C486   1.421       .  A
C485        O490   1.372       .  S
C486        C487   1.398       .  A
C487        H491   1.083       .  S
C487        C488   1.399       .  A
C488        O492   1.374       .  S
O490        H494   0.992       .  S
O492        H493   0.992       .  S
C495        C496   1.396       .  A
C495        C500   1.417       .  A
C496        H501   1.084       .  S
C496        C497   1.409       .  A
C497        C498   1.429       .  A
C497        O502   1.373       .  S
C498        C499   1.403       .  A
C499        H503   1.081       .  S
C499        C500   1.411       .  A
C500        O504   1.371       .  S
O502        H506   0.993       .  S
O504        H505   0.992       .  S
C507        C508   1.402       .  A
C507        C512   1.404       .  A
C508        H513   1.084       .  S
C508        C509   1.398       .  A
C509        C510   1.405       .  A
C509        O514   1.371       .  S
C510        C511   1.397       .  A
C511        H515   1.084       .  S
C511        C512   1.388       .  A
C512        O516   1.374       .  S
O514        H518   0.992       .  S
O516        H517   0.992       .  S
C519        C520   1.405       .  A
C519        C524   1.396       .  A
C520        H525   1.084       .  S
C520        C521   1.397       .  A
C521        C522   1.406       .  A
C521        O526   1.371       .  S
C522        C523   1.413       .  A
C523        H527   1.083       .  S
C523        C524   1.391       .  A
C524        O528   1.372       .  S
O526        H530   0.992       .  S
O528        H529   0.992       .  S
C531        C532   1.407       .  A
C531        C536   1.416       .  A
C532        H537   1.084       .  S
C532        C533   1.409       .  A
C533        C534   1.412       .  A
C533        O538   1.371       .  S
C534        C535   1.404       .  A
C535        H539   1.084       .  S
C535        C536   1.408       .  A
C536        O540   1.372       .  S
O538        H542   0.992       .  S
O540        H541   0.992       .  S
C543        C544   1.395       .  A
C543        C548   1.405       .  A
C544        H549   1.084       .  S
C544        C545   1.392       .  A
C545        C546   1.408       .  A
C545        O550   1.374       .  S
C546        C547   1.396       .  A
C547        H551   1.084       .  S
C547        C548   1.393       .  A
C548        O552   1.370       .  S
O550        H554   0.992       .  S
O552        H553   0.991       .  S
C555        C556   1.415       .  A
C555        C560   1.404       .  A
C556        H561   1.084       .  S
C556        C557   1.411       .  A
C557        C558   1.407       .  A
C557        O562   1.371       .  S
C558        C559   1.419       .  A
C559        H563   1.083       .  S
C559        C560   1.412       .  A
C560        O564   1.372       .  S
O562        H566   0.991       .  S
O564        H565   0.992       .  S
C567        C568   1.407       .  A
C567        C572   1.400       .  A
C568        H573   1.083       .  S
C568        C569   1.405       .  A
C569        C570   1.406       .  A
C569        O574   1.370       .  S
C570        C571   1.410       .  A
C571        H575   1.084       .  S
C571        C572   1.397       .  A
C572        O576   1.371       .  S
O574        H578   0.992       .  S
O576        H577   0.992       .  S
C579        C580   1.410       .  A
C579        C584   1.406       .  A
C580        H585   1.081       .  S
C580        C581   1.398       .  A
C581        C582   1.400       .  A
C581        O586   1.371       .  S
C582        C583   1.409       .  A
C583        H587   1.083       .  S
C583        C584   1.407       .  A
C584        O588   1.370       .  S
O586        H590   0.992       .  S
O588        H589   0.992       .  S
C591        C592   1.408       .  A
C591        C596   1.401       .  A
C592        H597   1.083       .  S
C592        C593   1.405       .  A
C593        C594   1.404       .  A
C593        O598   1.370       .  S
C594        C595   1.409       .  A
C595        H599   1.083       .  S
C595        C596   1.401       .  A
C596        O600   1.372       .  S
O598        H602   0.992       .  S
O600        H601   0.992       .  S
C603        C604   1.402       .  A
C603        C608   1.418       .  A
C604        H609   1.083       .  S
C604        C605   1.407       .  A
C605        C606   1.411       .  A
C605        O610   1.371       .  S
C606        C607   1.394       .  A
C607        H611   1.084       .  S
C607        C608   1.398       .  A
C608        O612   1.370       .  S
O610        H614   0.991       .  S
O612        H613   0.992       .  S
C615        C616   1.407       .  A
C615        C620   1.422       .  A
C616        H621   1.083       .  S
C616        C617   1.416       .  A
C617        C618   1.416       .  A
C617        O622   1.371       .  S
C618        C995   1.491       .  S
C618        C619   1.390       .  A
C619        H623   1.080       .  S
C619        C620   1.383       .  A
C620        O624   1.374       .  S
O622        H626   0.992       .  S
O624        H625   0.992       .  S
C627        C628   1.400       .  A
C627        C632   1.418       .  A
C628        H633   1.083       .  S
C628        C629   1.405       .  A
C629        C630   1.412       .  A
C629        O634   1.372       .  S
C630        C631   1.390       .  A
C631        H635   1.084       .  S
C631        C632   1.388       .  A
C632        O636   1.369       .  S
O634        H638   0.991       .  S
O636        H637   0.992       .  S
C639        C640   1.403       .  A
C639        C644   1.411       .  A
C640        H645   1.083       .  S
C640        C641   1.414       .  A
C641        C642   1.419       .  A
C641        O646   1.371       .  S
C642        C643   1.398       .  A
C643        H647   1.081       .  S
C643        C644   1.380       .  A
C644        O648   1.374       .  S
O646        H650   0.992       .  S
O648        H649   0.992       .  S
C651        C652   1.411       .  A
C651        C656   1.406       .  A
C652        H657   1.082       .  S
C652        C653   1.389       .  A
C653        C654   1.396       .  A
C653        O658   1.372       .  S
C654        C994   1.486       .  S
C654        C655   1.409       .  A
C655        H659   1.084       .  S
C655        C656   1.405       .  A
C656        O660   1.370       .  S
O658        H662   0.992       .  S
O660        H661   0.991       .  S
C663        C973   1.495   1_455  S
C664        C961   1.483       .  S
C665        C922   1.488       .  S
C665       C1268   1.484       .  S
C665        C997   1.353       .  D
C666       C1229   1.483   1_545  S
C666        C913   1.487       .  S
C666        C996   1.353       .  D
C667        N685   1.336       .  A
C667        C704   1.477       .  S
C667        C982   1.480       .  S
N668        N685   1.311       .  A
N668        N690   1.321       .  A
N668       Co705   2.030       .  S
C669        N694   1.328       .  A
C669        C707   1.437       .  S
C669        H714   1.081       .  S
H670        C711   1.081       .  S
C671        N695   1.358       .  A
C671        C675   1.480       .  S
C671        H700   1.079       .  S
Co672       N690   2.139       .  S
Co672       N680   2.044       .  S
Co672       N712   2.034       .  S
Co672       N688   2.165       .  S
Co672      Cl716   2.445       .  S
N673        C711   1.354       .  A
N673        N680   1.313       .  A
N673       Co674   2.108       .  S
Co674       N677   2.015       .  S
Co674       N694   2.036       .  S
Co674       N681   2.090       .  S
Co674      Cl716   2.435       .  S
C675        N713   1.332       .  A
C675        C970   1.476       .  S
N676        N683   1.317       .  A
N676        N706   1.317       .  A
N676       Co709   2.037       .  S
N677        N695   1.319       .  A
N677        N713   1.306       .  A
N678        C707   1.373       .  A
N678        N688   1.343       .  A
H679        C704   1.079       .  S
N680        N701   1.317       .  A
N681        N699   1.319       .  A
N681        N686   1.325       .  A
C682        N686   1.347       .  A
C682        C710   1.448       .  S
C682        C877   1.447       .  S
N683        C698   1.355       .  A
N683       Co705   2.132       .  S
C684        N712   1.324       .  A
C684        C687   1.440       .  S
C684        H718   1.082       .  S
C687        N708   1.352       .  A
C687        C850   1.453       .  S
N688        N694   1.317       .  A
N689        C715   1.332       .  A
N689        N691   1.319       .  A
N689       Co705   2.051       .  S
N690        C704   1.356       .  A
N691        N719   1.338       .  A
N691       Co709   2.149       .  S
H692        C715   1.082       .  S
H693        C710   1.082       .  S
N695       Co709   2.139       .  S
N696        N708   1.328       .  A
N696        N712   1.320       .  A
N696       Co705   2.099       .  S
C697        N701   1.340       .  A
C697        C711   1.475       .  S
C697        C925   1.481       .  S
C698        C717   1.477       .  S
C698        H702   1.080       .  S
N699        C710   1.325       .  A
N699       Co709   2.038       .  S
C703        N719   1.367       .  A
C703        C715   1.443       .  S
C703        C865   1.488       .  S
Co705      Cl716   2.437       .  S
N706        C717   1.339       .  A
C707        C886   1.498       .  S
Co709      Cl716   2.455       .  S
C717        C934   1.486       .  S
C720        N738   1.335       .  A
C720        C757   1.476       .  S
C720        C958   1.477       .  S
N721        N738   1.311       .  A
N721        N743   1.321       .  A
N721       Co758   2.026       .  S
C722        N747   1.329       .  A
C722        C760   1.436       .  S
C722        H767   1.081       .  S
H723        C764   1.077       .  S
C724        N748   1.365       .  A
C724        C728   1.490       .  S
C724        H753   1.081       .  S
Co725       N743   2.142       .  S
Co725       N733   2.040       .  S
Co725       N765   2.030       .  S
Co725       N741   2.155       .  S
Co725      Cl769   2.445       .  S
N726        C764   1.355       .  A
N726        N733   1.314       .  A
N726       Co727   2.119       .  S
Co727       N730   2.016       .  S
Co727       N747   2.039       .  S
Co727       N734   2.088       .  S
Co727      Cl769   2.439       .  S
C728        N766   1.330       .  A
C728        C946   1.492       .  S
N729        N736   1.317       .  A
N729        N759   1.316       .  A
N729       Co762   2.033       .  S
N730        N748   1.318       .  A
N730        N766   1.305       .  A
N731        C760   1.371       .  A
N731        N741   1.341       .  A
H732        C757   1.079       .  S
N733        N754   1.317       .  A
N734        N752   1.319       .  A
N734        N739   1.326       .  A
C735        N739   1.347       .  A
C735        C763   1.446       .  S
C735        C838   1.450       .  S
N736        C751   1.351       .  A
N736       Co758   2.123       .  S
C737        N765   1.322       .  A
C737        C740   1.441       .  S
C737        H771   1.082       .  S
C740        N761   1.354       .  A
C740        C814   1.460       .  S
N741        N747   1.317       .  A
N742        C768   1.330       .  A
N742        N744   1.321       .  A
N742       Co758   2.045       .  S
N743        C757   1.355       .  A
N744        N772   1.338       .  A
N744       Co762   2.158       .  S
H745        C768   1.082       .  S
H746        C763   1.082       .  S
N748       Co762   2.150       .  S
N749        N761   1.329       .  A
N749        N765   1.319       .  A
N749       Co758   2.104       .  S
C750        N754   1.340       .  A
C750        C764   1.476       .  S
C750        C910   1.487       .  S
C751        C770   1.476       .  S
C751        H755   1.078       .  S
N752        C763   1.327       .  A
N752       Co762   2.045       .  S
C756        N772   1.366       .  A
C756        C768   1.442       .  S
C756        C802   1.486       .  S
Co758      Cl769   2.444       .  S
N759        C770   1.340       .  A
C760        C826   1.492       .  S
Co762      Cl769   2.452       .  S
C770        C901   1.482       .  S
O773        C781   1.253       .  A
O773       Co793   1.838       .  S
O774        C782   1.252       .  A
O774       Co794   1.838       .  S
O775        C783   1.279       .  A
O775      Co1126   2.020   1_545  S
O776        C784   1.280       .  A
O776      Co1127   2.031       .  S
O777        C783   1.278       .  A
O777       Co794   1.994   1_556  S
O778        C784   1.274       .  A
O778       Co793   1.983   1_554  S
O779        C782   1.304       .  A
O779       Co796   2.129       .  S
O780        C781   1.303       .  A
O780       Co795   2.124       .  S
C781        C853   1.476       .  S
C782        C817   1.478       .  S
C783        C862   1.500       .  S
C784        C805   1.501       .  S
O785        C798   1.239   1_455  A
O786        C799   1.240   1_455  A
O787        C800   1.254       .  A
O788        C801   1.249       .  A
O789        C801   1.288       .  A
O790        C800   1.287       .  A
O791        C798   1.250       .  A
O792        C799   1.254       .  A
Co793      O1128   1.935   1_556  S
Co794       O797   1.925       .  S
Co795      O1106   2.020       .  S
Co795      O1128   2.106   1_556  S
Co796      O1107   2.031   1_545  S
Co796       O797   2.104       .  S
O797      Co1124   1.935   1_544  S
O797      Co1126   2.106   1_544  S
C798        C841   1.452       .  S
C799        C874   1.448       .  S
C800        C889   1.507       .  S
C801        C829   1.510       .  S
C802        C803   1.404       .  A
C802        C807   1.410       .  A
C803        H808   1.084       .  S
C803        C804   1.409       .  A
C804        C805   1.414       .  A
C804        O809   1.372       .  S
C805        C806   1.409       .  A
C806        H810   1.083       .  S
C806        C807   1.409       .  A
C807        O811   1.371       .  S
O809        H813   0.992       .  S
O811        H812   0.992       .  S
C814        C815   1.390       .  A
C814        C819   1.413       .  A
C815        H820   1.084       .  S
C815        C816   1.394       .  A
C816        C817   1.421       .  A
C816        O821   1.372       .  S
C817        C818   1.398       .  A
C818        H822   1.083       .  S
C818        C819   1.399       .  A
C819        O823   1.374       .  S
O821        H825   0.992       .  S
O823        H824   0.992       .  S
C826        C827   1.396       .  A
C826        C831   1.417       .  A
C827        H832   1.084       .  S
C827        C828   1.409       .  A
C828        C829   1.429       .  A
C828        O833   1.373       .  S
C829        C830   1.403       .  A
C830        H834   1.081       .  S
C830        C831   1.411       .  A
C831        O835   1.371       .  S
O833        H837   0.993       .  S
O835        H836   0.992       .  S
C838        C839   1.402       .  A
C838        C843   1.404       .  A
C839        H844   1.084       .  S
C839        C840   1.398       .  A
C840        C841   1.405       .  A
C840        O845   1.371   1_655  S
C841        C842   1.397       .  A
C842        H846   1.084       .  S
C842        C843   1.388       .  A
C843        O847   1.374       .  S
O845        H849   0.992       .  S
O847        H848   0.992       .  S
C850        C851   1.405       .  A
C850        C855   1.396       .  A
C851        H856   1.084       .  S
C851        C852   1.397       .  A
C852        C853   1.406       .  A
C852        O857   1.371       .  S
C853        C854   1.413       .  A
C854        H858   1.083       .  S
C854        C855   1.391       .  A
C855        O859   1.372       .  S
O857        H861   0.992       .  S
O859        H860   0.992       .  S
C862        C863   1.407       .  A
C862        C867   1.416       .  A
C863        H868   1.084       .  S
C863        C864   1.409       .  A
C864        C865   1.412       .  A
C864        O869   1.371       .  S
C865        C866   1.404       .  A
C866        H870   1.084       .  S
C866        C867   1.408       .  A
C867        O871   1.372   1_545  S
O869        H873   0.992       .  S
O871        H872   0.992       .  S
C874        C875   1.395       .  A
C874        C879   1.405       .  A
C875        H880   1.084       .  S
C875        C876   1.392       .  A
C876        C877   1.408       .  A
C876        O881   1.374       .  S
C877        C878   1.396       .  A
C878        H882   1.084       .  S
C878        C879   1.393       .  A
C879        O883   1.370       .  S
O881        H885   0.992       .  S
O883        H884   0.991       .  S
C886        C887   1.415       .  A
C886        C891   1.404       .  A
C887        H892   1.084       .  S
C887        C888   1.411       .  A
C888        C889   1.407       .  A
C888        O893   1.371       .  S
C889        C890   1.419       .  A
C890        H894   1.083       .  S
C890        C891   1.412       .  A
C891        O895   1.372       .  S
O893        H897   0.991       .  S
O895        H896   0.992       .  S
C898        C997   1.483       .  S
C898        C899   1.407       .  A
C898        C903   1.400       .  A
C899        H904   1.083       .  S
C899        C900   1.405       .  A
C900        C901   1.406       .  A
C900        O905   1.370       .  S
C901        C902   1.410       .  A
C902        H906   1.084       .  S
C902        C903   1.397       .  A
C903        O907   1.371       .  S
O905        H909   0.992       .  S
O907        H908   0.992       .  S
C910        C911   1.410       .  A
C910        C915   1.406       .  A
C911        H916   1.081       .  S
C911        C912   1.398       .  A
C912        C913   1.400       .  A
C912        O917   1.371       .  S
C913        C914   1.409       .  A
C914        H918   1.083       .  S
C914        C915   1.407       .  A
C915        O919   1.370       .  S
O917        H921   0.992       .  S
O919        H920   0.992       .  S
C922        C923   1.408       .  A
C922        C927   1.401       .  A
C923        H928   1.083       .  S
C923        C924   1.405       .  A
C924        C925   1.404       .  A
C924        O929   1.370       .  S
C925        C926   1.409       .  A
C926        H930   1.083       .  S
C926        C927   1.401       .  A
C927        O931   1.372       .  S
O929        H933   0.992       .  S
O931        H932   0.992       .  S
C934        C935   1.402       .  A
C934        C939   1.418       .  A
C935        H940   1.083       .  S
C935        C936   1.407       .  A
C936        C937   1.411       .  A
C936        O941   1.371       .  S
C937        C996   1.484       .  S
C937        C938   1.394       .  A
C938        H942   1.084       .  S
C938        C939   1.398       .  A
C939        O943   1.370       .  S
O941        H945   0.991       .  S
O943        H944   0.992       .  S
C946        C947   1.407       .  A
C946        C951   1.422       .  A
C947        H952   1.083       .  S
C947        C948   1.416       .  A
C948        C949   1.416       .  A
C948        O953   1.371       .  S
C949        C950   1.390       .  A
C950        H954   1.080       .  S
C950        C951   1.383       .  A
C951        O955   1.374       .  S
O953        H957   0.992       .  S
O955        H956   0.992       .  S
C958        C959   1.400       .  A
C958        C963   1.418       .  A
C959        H964   1.083       .  S
C959        C960   1.405       .  A
C960        C961   1.412       .  A
C960        O965   1.372       .  S
C961        C962   1.390       .  A
C962        H966   1.084       .  S
C962        C963   1.388       .  A
C963        O967   1.369       .  S
O965        H969   0.991       .  S
O967        H968   0.992       .  S
C970        C971   1.403       .  A
C970        C975   1.411       .  A
C971        H976   1.083       .  S
C971        C972   1.414       .  A
C972        C973   1.419       .  A
C972        O977   1.371       .  S
C973        C974   1.398       .  A
C974        H978   1.081       .  S
C974        C975   1.380       .  A
C975        O979   1.374       .  S
O977        H981   0.992       .  S
O979        H980   0.992       .  S
C982        C983   1.411       .  A
C982        C987   1.406       .  A
C983        H988   1.082       .  S
C983        C984   1.389       .  A
C984        C985   1.396       .  A
C984        O989   1.372       .  S
C985        C986   1.409       .  A
C986        H990   1.084       .  S
C986        C987   1.405       .  A
C987        O991   1.370       .  S
O989        H993   0.992       .  S
O991        H992   0.991       .  S
C994       C1304   1.495   1_455  S
C995       C1292   1.483       .  S
C996       C1253   1.488   1_545  S
C997       C1244   1.487       .  S
C998       N1016   1.336       .  A
C998       C1035   1.477       .  S
C998       C1313   1.480       .  S
N999       N1016   1.311       .  A
N999       N1021   1.321       .  A
N999      Co1036   2.030       .  S
C1000      N1025   1.328       .  A
C1000      C1038   1.437       .  S
C1000      H1045   1.081       .  S
H1001      C1042   1.081       .  S
C1002      N1026   1.358       .  A
C1002      C1006   1.480       .  S
C1002      H1031   1.079       .  S
Co1003     N1021   2.139       .  S
Co1003     N1011   2.044       .  S
Co1003     N1043   2.034       .  S
Co1003     N1019   2.165       .  S
Co1003    Cl1047   2.445       .  S
N1004      C1042   1.354       .  A
N1004      N1011   1.313       .  A
N1004     Co1005   2.108       .  S
Co1005     N1008   2.015       .  S
Co1005     N1025   2.036       .  S
Co1005     N1012   2.090       .  S
Co1005    Cl1047   2.435       .  S
C1006      N1044   1.332       .  A
C1006      C1301   1.476       .  S
N1007      N1014   1.317       .  A
N1007      N1037   1.317       .  A
N1007     Co1040   2.037       .  S
N1008      N1026   1.319       .  A
N1008      N1044   1.306       .  A
N1009      C1038   1.373       .  A
N1009      N1019   1.343       .  A
H1010      C1035   1.079       .  S
N1011      N1032   1.317       .  A
N1012      N1030   1.319       .  A
N1012      N1017   1.325       .  A
C1013      N1017   1.347       .  A
C1013      C1041   1.448       .  S
C1013      C1208   1.447       .  S
N1014      C1029   1.355       .  A
N1014     Co1036   2.132       .  S
C1015      N1043   1.324       .  A
C1015      C1018   1.440       .  S
C1015      H1049   1.082       .  S
C1018      N1039   1.352       .  A
C1018      C1181   1.453       .  S
N1019      N1025   1.317       .  A
N1020      C1046   1.332       .  A
N1020      N1022   1.319       .  A
N1020     Co1036   2.051       .  S
N1021      C1035   1.356       .  A
N1022      N1050   1.338       .  A
N1022     Co1040   2.149       .  S
H1023      C1046   1.082       .  S
H1024      C1041   1.082       .  S
N1026     Co1040   2.139       .  S
N1027      N1039   1.328       .  A
N1027      N1043   1.320       .  A
N1027     Co1036   2.099       .  S
C1028      N1032   1.340       .  A
C1028      C1042   1.475       .  S
C1028      C1256   1.481       .  S
C1029      C1048   1.477       .  S
C1029      H1033   1.080       .  S
N1030      C1041   1.325       .  A
N1030     Co1040   2.038       .  S
C1034      N1050   1.367       .  A
C1034      C1046   1.443       .  S
C1034      C1196   1.488       .  S
Co1036    Cl1047   2.437       .  S
N1037      C1048   1.339       .  A
C1038      C1217   1.498       .  S
Co1040    Cl1047   2.455       .  S
C1048      C1265   1.486       .  S
C1051      N1069   1.335       .  A
C1051      C1088   1.476       .  S
C1051      C1289   1.477       .  S
N1052      N1069   1.311       .  A
N1052      N1074   1.321       .  A
N1052     Co1089   2.026       .  S
C1053      N1078   1.329       .  A
C1053      C1091   1.436       .  S
C1053      H1098   1.081       .  S
H1054      C1095   1.077       .  S
C1055      N1079   1.365       .  A
C1055      C1059   1.490       .  S
C1055      H1084   1.081       .  S
Co1056     N1074   2.142       .  S
Co1056     N1064   2.040       .  S
Co1056     N1096   2.030       .  S
Co1056     N1072   2.155       .  S
Co1056    Cl1100   2.445       .  S
N1057      C1095   1.355       .  A
N1057      N1064   1.314       .  A
N1057     Co1058   2.119       .  S
Co1058     N1061   2.016       .  S
Co1058     N1078   2.039       .  S
Co1058     N1065   2.088       .  S
Co1058    Cl1100   2.439       .  S
C1059      N1097   1.330       .  A
C1059      C1277   1.492       .  S
N1060      N1067   1.317       .  A
N1060      N1090   1.316       .  A
N1060     Co1093   2.033       .  S
N1061      N1079   1.318       .  A
N1061      N1097   1.305       .  A
N1062      C1091   1.371       .  A
N1062      N1072   1.341       .  A
H1063      C1088   1.079       .  S
N1064      N1085   1.317       .  A
N1065      N1083   1.319       .  A
N1065      N1070   1.326       .  A
C1066      N1070   1.347       .  A
C1066      C1094   1.446       .  S
C1066      C1169   1.450       .  S
N1067      C1082   1.351       .  A
N1067     Co1089   2.123       .  S
C1068      N1096   1.322       .  A
C1068      C1071   1.441       .  S
C1068      H1102   1.082       .  S
C1071      N1092   1.354       .  A
C1071      C1145   1.460       .  S
N1072      N1078   1.317       .  A
N1073      C1099   1.330       .  A
N1073      N1075   1.321       .  A
N1073     Co1089   2.045       .  S
N1074      C1088   1.355       .  A
N1075      N1103   1.338       .  A
N1075     Co1093   2.158       .  S
H1076      C1099   1.082       .  S
H1077      C1094   1.082       .  S
N1079     Co1093   2.150       .  S
N1080      N1092   1.329       .  A
N1080      N1096   1.319       .  A
N1080     Co1089   2.104       .  S
C1081      N1085   1.340       .  A
C1081      C1095   1.476       .  S
C1081      C1241   1.487       .  S
C1082      C1101   1.476       .  S
C1082      H1086   1.078       .  S
N1083      C1094   1.327       .  A
N1083     Co1093   2.045       .  S
C1087      N1103   1.366       .  A
C1087      C1099   1.442       .  S
C1087      C1133   1.486       .  S
Co1089    Cl1100   2.444       .  S
N1090      C1101   1.340       .  A
C1091      C1157   1.492       .  S
Co1093    Cl1100   2.452       .  S
C1101      C1232   1.482       .  S
O1104      C1112   1.253       .  A
O1104     Co1124   1.838       .  S
O1105      C1113   1.252       .  A
O1105     Co1125   1.838       .  S
O1106      C1114   1.279       .  A
O1107      C1115   1.280       .  A
O1108      C1114   1.278       .  A
O1108     Co1125   1.994   1_556  S
O1109      C1115   1.274       .  A
O1109     Co1124   1.983   1_554  S
O1110      C1113   1.304       .  A
O1110     Co1127   2.129       .  S
O1111      C1112   1.303       .  A
O1111     Co1126   2.124       .  S
C1112      C1184   1.476       .  S
C1113      C1148   1.478       .  S
C1114      C1193   1.500       .  S
C1115      C1136   1.501       .  S
O1116      C1129   1.239   1_455  A
O1117      C1130   1.240   1_455  A
O1118      C1131   1.254       .  A
O1119      C1132   1.249       .  A
O1120      C1132   1.288       .  A
O1121      C1131   1.287       .  A
O1122      C1129   1.250       .  A
O1123      C1130   1.254       .  A
Co1125     O1128   1.925       .  S
Co1127     O1128   2.104       .  S
C1129      C1172   1.452       .  S
C1130      C1205   1.448       .  S
C1131      C1220   1.507       .  S
C1132      C1160   1.510       .  S
C1133      C1134   1.404       .  A
C1133      C1138   1.410       .  A
C1134      H1139   1.084       .  S
C1134      C1135   1.409       .  A
C1135      C1136   1.414       .  A
C1135      O1140   1.372   1_565  S
C1136      C1137   1.409       .  A
C1137      H1141   1.083       .  S
C1137      C1138   1.409       .  A
C1138      O1142   1.371       .  S
O1140      H1144   0.992   1_545  S
O1142      H1143   0.992       .  S
C1145      C1146   1.390       .  A
C1145      C1150   1.413       .  A
C1146      H1151   1.084       .  S
C1146      C1147   1.394       .  A
C1147      C1148   1.421       .  A
C1147      O1152   1.372       .  S
C1148      C1149   1.398       .  A
C1149      H1153   1.083       .  S
C1149      C1150   1.399       .  A
C1150      O1154   1.374       .  S
O1152      H1156   0.992       .  S
O1154      H1155   0.992       .  S
C1157      C1158   1.396       .  A
C1157      C1162   1.417       .  A
C1158      H1163   1.084       .  S
C1158      C1159   1.409       .  A
C1159      C1160   1.429       .  A
C1159      O1164   1.373       .  S
C1160      C1161   1.403       .  A
C1161      H1165   1.081       .  S
C1161      C1162   1.411       .  A
C1162      O1166   1.371       .  S
O1164      H1168   0.993       .  S
O1166      H1167   0.992       .  S
C1169      C1170   1.402       .  A
C1169      C1174   1.404       .  A
C1170      H1175   1.084       .  S
C1170      C1171   1.398       .  A
C1171      C1172   1.405       .  A
C1171      O1176   1.371   1_655  S
C1172      C1173   1.397       .  A
C1173      H1177   1.084       .  S
C1173      C1174   1.388       .  A
C1174      O1178   1.374       .  S
O1176      H1180   0.992       .  S
O1178      H1179   0.992       .  S
C1181      C1182   1.405       .  A
C1181      C1186   1.396       .  A
C1182      H1187   1.084       .  S
C1182      C1183   1.397       .  A
C1183      C1184   1.406       .  A
C1183      O1188   1.371       .  S
C1184      C1185   1.413       .  A
C1185      H1189   1.083       .  S
C1185      C1186   1.391       .  A
C1186      O1190   1.372       .  S
O1188      H1192   0.992       .  S
O1190      H1191   0.992       .  S
C1193      C1194   1.407       .  A
C1193      C1198   1.416       .  A
C1194      H1199   1.084       .  S
C1194      C1195   1.409       .  A
C1195      C1196   1.412       .  A
C1195      O1200   1.371       .  S
C1196      C1197   1.404       .  A
C1197      H1201   1.084       .  S
C1197      C1198   1.408       .  A
C1198      O1202   1.372       .  S
O1200      H1204   0.992       .  S
O1202      H1203   0.992       .  S
C1205      C1206   1.395       .  A
C1205      C1210   1.405       .  A
C1206      H1211   1.084       .  S
C1206      C1207   1.392       .  A
C1207      C1208   1.408       .  A
C1207      O1212   1.374       .  S
C1208      C1209   1.396       .  A
C1209      H1213   1.084       .  S
C1209      C1210   1.393       .  A
C1210      O1214   1.370       .  S
O1212      H1216   0.992       .  S
O1214      H1215   0.991       .  S
C1217      C1218   1.415       .  A
C1217      C1222   1.404       .  A
C1218      H1223   1.084       .  S
C1218      C1219   1.411       .  A
C1219      C1220   1.407       .  A
C1219      O1224   1.371       .  S
C1220      C1221   1.419       .  A
C1221      H1225   1.083       .  S
C1221      C1222   1.412       .  A
C1222      O1226   1.372       .  S
O1224      H1228   0.991       .  S
O1226      H1227   0.992       .  S
C1229      C1230   1.407       .  A
C1229      C1234   1.400       .  A
C1230      H1235   1.083       .  S
C1230      C1231   1.405       .  A
C1231      C1232   1.406       .  A
C1231      O1236   1.370       .  S
C1232      C1233   1.410       .  A
C1233      H1237   1.084       .  S
C1233      C1234   1.397       .  A
C1234      O1238   1.371       .  S
O1236      H1240   0.992       .  S
O1238      H1239   0.992       .  S
C1241      C1242   1.410       .  A
C1241      C1246   1.406       .  A
C1242      H1247   1.081       .  S
C1242      C1243   1.398       .  A
C1243      C1244   1.400       .  A
C1243      O1248   1.371       .  S
C1244      C1245   1.409       .  A
C1245      H1249   1.083       .  S
C1245      C1246   1.407       .  A
C1246      O1250   1.370       .  S
O1248      H1252   0.992       .  S
O1250      H1251   0.992       .  S
C1253      C1254   1.408       .  A
C1253      C1258   1.401       .  A
C1254      H1259   1.083       .  S
C1254      C1255   1.405       .  A
C1255      C1256   1.404       .  A
C1255      O1260   1.370       .  S
C1256      C1257   1.409       .  A
C1257      H1261   1.083       .  S
C1257      C1258   1.401       .  A
C1258      O1262   1.372       .  S
O1260      H1264   0.992       .  S
O1262      H1263   0.992       .  S
C1265      C1266   1.402       .  A
C1265      C1270   1.418       .  A
C1266      H1271   1.083       .  S
C1266      C1267   1.407       .  A
C1267      C1268   1.411       .  A
C1267      O1272   1.371       .  S
C1268      C1269   1.394       .  A
C1269      H1273   1.084       .  S
C1269      C1270   1.398       .  A
C1270      O1274   1.370       .  S
O1272      H1276   0.991       .  S
O1274      H1275   0.992       .  S
C1277      C1278   1.407       .  A
C1277      C1282   1.422       .  A
C1278      H1283   1.083       .  S
C1278      C1279   1.416       .  A
C1279      C1280   1.416       .  A
C1279      O1284   1.371       .  S
C1280      C1281   1.390       .  A
C1281      H1285   1.080       .  S
C1281      C1282   1.383       .  A
C1282      O1286   1.374       .  S
O1284      H1288   0.992       .  S
O1286      H1287   0.992       .  S
C1289      C1290   1.400       .  A
C1289      C1294   1.418       .  A
C1290      H1295   1.083       .  S
C1290      C1291   1.405       .  A
C1291      C1292   1.412       .  A
C1291      O1296   1.372       .  S
C1292      C1293   1.390       .  A
C1293      H1297   1.084       .  S
C1293      C1294   1.388       .  A
C1294      O1298   1.369       .  S
O1296      H1300   0.991       .  S
O1298      H1299   0.992       .  S
C1301      C1302   1.403       .  A
C1301      C1306   1.411       .  A
C1302      H1307   1.083       .  S
C1302      C1303   1.414       .  A
C1303      C1304   1.419       .  A
C1303      O1308   1.371       .  S
C1304      C1305   1.398       .  A
C1305      H1309   1.081       .  S
C1305      C1306   1.380       .  A
C1306      O1310   1.374       .  S
O1308      H1312   0.992       .  S
O1310      H1311   0.992       .  S
C1313      C1314   1.411       .  A
C1313      C1318   1.406       .  A
C1314      H1319   1.082       .  S
C1314      C1315   1.389       .  A
C1315      C1316   1.396       .  A
C1315      O1320   1.372       .  S
C1316      C1317   1.409       .  A
C1317      H1321   1.084       .  S
C1317      C1318   1.405       .  A
C1318      O1322   1.370       .  S
O1320      H1324   0.992       .  S
O1322      H1323   0.991       .  S
