geometry optimzed in LAMMPS
_audit_creation_date              2020-12-01 
_audit_creation_method            'lammps2cif' 
_symmetry_space_group_name_H-M    'P1' 
_symmetry_Int_Tables_number       1 
_symmetry_cell_setting            triclinic 
loop_ 
_symmetry_equiv_pos_as_xyz 
  x,y,z 
_cell_length_a                    58.64474749 
_cell_length_b                    58.875068353580964 
_cell_length_c                    56.66897581495155 
_cell_angle_alpha                 89.71770738332307 
_cell_angle_beta                  90.14144468702906 
_cell_angle_gamma                 89.92342323251961 
loop_ 
_atom_site_label 
_atom_site_type_symbol 
_atom_site_fract_x 
_atom_site_fract_y 
_atom_site_fract_z 
_atom_site_charge 
N1          N  0.52932376  0.49276370  0.15044366    -0.26000
N2          N  0.54630560  0.50146786  0.16281655    -0.33900
C3          C  0.54355647  0.49595199  0.18569319     0.02300
C4          C  0.52395503  0.48315746  0.18764187     0.08400
C5          C  0.51529421  0.48143829  0.16507527    -0.04700
H6          H  0.55455621  0.50151890  0.19988466     0.09000
H7          H  0.49960517  0.47324658  0.15976488     0.10200
Cu8        Cu  0.57105633  0.52214667  0.14813264     0.44200
Cu9        Cu  0.52526519  0.49827205  0.11460624     0.42000
Cu10       Cu  0.56276259  0.53951883  0.08682475     0.43900
N11         N  0.59171756  0.54513401  0.13060292    -0.33400
N12         N  0.58816176  0.55236671  0.10875644    -0.27700
C13         C  0.60406001  0.56802085  0.10334999    -0.03800
C14         C  0.61836664  0.57048140  0.12265300     0.08500
C15         C  0.61013877  0.55564653  0.13950069     0.02300
H16         H  0.60544136  0.57650991  0.08643570     0.09900
H17         H  0.61686166  0.55289024  0.15707560     0.09000
N18         N  0.53760474  0.52159419  0.06881420    -0.34800
N19         N  0.52412481  0.50651161  0.07909642    -0.27000
C20         C  0.51011252  0.49752538  0.06283921    -0.02300
C21         C  0.51502380  0.50738133  0.04135660     0.06300
C22         C  0.53248928  0.52255819  0.04563541     0.04400
H23         H  0.49736900  0.48469503  0.06642888     0.09500
H24         H  0.54093797  0.53337830  0.03289123     0.08400
N25         N  0.45707307  0.46918647  0.83079559    -0.26000
N26         N  0.44370136  0.45409602  0.82049036    -0.33900
C27         C  0.44827036  0.45371541  0.79726711     0.02300
C28         C  0.46531697  0.46924518  0.79289831     0.08400
C29         C  0.47053959  0.47882351  0.81439681    -0.04700
H30         H  0.43944389  0.44331214  0.78448662     0.09000
H31         H  0.48289205  0.49204384  0.81784675     0.10200
Cu32       Cu  0.41862120  0.43605401  0.83798009     0.44200
Cu33       Cu  0.45608636  0.47624564  0.86652325     0.42000
Cu34       Cu  0.40914213  0.45218425  0.89894649     0.43900
N35         N  0.39167720  0.42440418  0.85813251    -0.33400
N36         N  0.38752426  0.43126934  0.87988821    -0.27700
C37         C  0.36792606  0.42187698  0.88734216    -0.03800
C38         C  0.35948765  0.40832911  0.86944696     0.08500
C39         C  0.37501056  0.41022291  0.85127707     0.02300
H40         H  0.36055259  0.42457428  0.90458411     0.09900
H41         H  0.37394365  0.40238902  0.83407780     0.09000
N42         N  0.43579996  0.46954689  0.91480731    -0.34800
N43         N  0.45303031  0.47831377  0.90282677    -0.27000
C44         C  0.46835444  0.48685521  0.91806206    -0.02300
C45         C  0.46035292  0.48325809  0.94062514     0.06300
C46         C  0.43972197  0.47226017  0.93803984     0.04400
H47         H  0.48444583  0.49444497  0.91307239     0.09500
H48         H  0.42874489  0.46603070  0.95195755     0.08400
N49         N  0.46847383  0.44722627  0.32688322    -0.26000
N50         N  0.45340469  0.43444964  0.31574317    -0.33900
C51         C  0.45662169  0.43655263  0.29233268     0.02300
C52         C  0.47449272  0.45138499  0.28875748     0.08400
C53         C  0.48165110  0.45785404  0.31091028    -0.04700
H54         H  0.44698974  0.42759377  0.27900026     0.09000
H55         H  0.49569410  0.46902709  0.31516096     0.10200
Cu56       Cu  0.43010143  0.41388232  0.33305177     0.44200
Cu57       Cu  0.47135424  0.44855527  0.36321591     0.42000
Cu58       Cu  0.43774181  0.40803784  0.39644215     0.43900
N59         N  0.41049713  0.39281552  0.35421683    -0.33400
N60         N  0.41414431  0.38970442  0.37705125    -0.27700
C61         C  0.39972728  0.37372510  0.38511699    -0.03800
C62         C  0.38617750  0.36677649  0.36651319     0.08500
C63         C  0.39332607  0.37927559  0.34725547     0.02300
H64         H  0.39904499  0.36775757  0.40319457     0.09900
H65         H  0.38709803  0.37802704  0.32932732     0.09000
N66         N  0.45987149  0.43110088  0.41179286    -0.35600
N67         N  0.47194500  0.44604972  0.39961262    -0.27000
C68         C  0.48390360  0.45902909  0.41465174    -0.02300
C69         C  0.47906608  0.45184819  0.43726568     0.06300
C70         C  0.46380487  0.43419080  0.43494949     0.04400
H71         H  0.49506097  0.47279635  0.40947426     0.09500
H72         H  0.45588983  0.42452402  0.44899535     0.08400
N73         N  0.50991353  0.50715733  0.64929840    -0.26000
N74         N  0.51555953  0.52622959  0.66008242    -0.33900
C75         C  0.51120376  0.52411973  0.68324126     0.02300
C76         C  0.50243175  0.50276035  0.68713487     0.08400
C77         C  0.50175562  0.49236652  0.66537235    -0.04700
H78         H  0.51421516  0.53719295  0.69622983     0.09000
H79         H  0.49574053  0.47542776  0.66146329     0.10200
Cu80       Cu  0.52937441  0.55429509  0.64341905     0.44200
Cu81       Cu  0.51335938  0.50241163  0.61327011     0.42000
Cu82       Cu  0.54193689  0.54853733  0.58203865     0.43900
N83         N  0.54587753  0.57911823  0.62404781    -0.33400
N84         N  0.55139406  0.57660166  0.60162497    -0.27700
C85         C  0.56298845  0.59503266  0.59435238    -0.03800
C86         C  0.56456273  0.60995929  0.61302855     0.08500
C87         C  0.55353642  0.59932877  0.63161225     0.02300
H88         H  0.56954738  0.59749566  0.57670035     0.09900
H89         H  0.55162754  0.60553644  0.64943991     0.09000
N90         N  0.52789605  0.52043992  0.56568204    -0.34800
N91         N  0.51750444  0.50368164  0.57698050    -0.27000
C92         C  0.50929605  0.48887649  0.56109338    -0.02300
C93         C  0.51483245  0.49676928  0.53889374     0.06300
C94         C  0.52654666  0.51676153  0.54232167     0.04400
H95         H  0.49951152  0.47385192  0.56539281     0.09500
H96         H  0.53307133  0.52812321  0.52888222     0.08400
N97         N  0.76572773  0.64057015  0.12561907    -0.26000
N98         N  0.77481840  0.66094946  0.12829527    -0.33900
C99         C  0.79771033  0.65896627  0.12834141     0.02300
C100        C  0.80315601  0.63629262  0.12516340     0.08400
C101        C  0.78252457  0.62519039  0.12335413    -0.04700
H102        H  0.80945976  0.67305518  0.12965528     0.09000
H103        H  0.77989214  0.60720947  0.12058690     0.10200
Cu104      Cu  0.75555731  0.69061299  0.12917204     0.44200
Cu105      Cu  0.73095675  0.63428921  0.12470423     0.42000
Cu106      Cu  0.69467194  0.68309709  0.11862331     0.43900
N107        N  0.73237224  0.71724874  0.12621543    -0.33400
N108        N  0.71028326  0.71440361  0.12245628    -0.27700
C109        C  0.70008760  0.73484130  0.12137994    -0.03800
C110        C  0.71653140  0.75136485  0.12441513     0.08500
C111        C  0.73681056  0.73963944  0.12740061     0.02300
H112        H  0.68204567  0.73744333  0.11832376     0.09900
H113        H  0.75357142  0.74682287  0.13020177     0.09000
N114        N  0.68262787  0.65006636  0.11787690    -0.34800
N115        N  0.69581820  0.63214137  0.12137788    -0.27000
C116        C  0.68289044  0.61329038  0.12094059    -0.02300
C117        C  0.66054013  0.61972216  0.11662457     0.06300
C118        C  0.66101778  0.64310535  0.11463545     0.04400
H119        H  0.68939760  0.59618162  0.12290712     0.09500
H120        H  0.64667969  0.65426959  0.11132622     0.08400
N121        N  0.66167187  0.88554485  0.11580915    -0.26000
N122        N  0.65286667  0.86501649  0.11826162    -0.33900
C123        C  0.62999376  0.86653225  0.11671507     0.02300
C124        C  0.62431705  0.88908466  0.11273970     0.08400
C125        C  0.64477578  0.90058994  0.11214197    -0.04700
H126        H  0.61845263  0.85224591  0.11777491     0.09000
H127        H  0.64721361  0.91863765  0.10949739     0.10200
Cu128      Cu  0.67286310  0.83604017  0.12176171     0.44200
Cu129      Cu  0.69617745  0.89234975  0.11772189     0.42000
Cu130      Cu  0.73478031  0.84479842  0.11990702     0.43900
N131        N  0.69685583  0.81004920  0.12281191    -0.33400
N132        N  0.71920459  0.81318159  0.12244577    -0.27700
C133        C  0.72964582  0.79282450  0.12331473    -0.03800
C134        C  0.71310144  0.77612483  0.12404208     0.08500
C135        C  0.69253771  0.78763623  0.12367231     0.02300
H136        H  0.74793714  0.79038159  0.12301303     0.09900
H137        H  0.67563350  0.78028814  0.12392441     0.09000
N138        N  0.74554340  0.87839213  0.11817070    -0.34800
N139        N  0.73123130  0.89575094  0.11849422    -0.27000
C140        C  0.74314290  0.91522660  0.11822701    -0.02300
C141        C  0.76608098  0.90988207  0.11736830     0.06300
C142        C  0.76702188  0.88640551  0.11717189     0.04400
H143        H  0.73561592  0.93201363  0.11802911     0.09500
H144        H  0.78218342  0.87593070  0.11665932     0.08400
N145        N  0.40556976  0.00718155  0.82865720    -0.26000
N146        N  0.39297965  0.02211383  0.81689928    -0.33900
C147        C  0.39483823  0.01798324  0.79364631     0.02300
C148        C  0.40927242  0.99967565  0.79081451     0.08400
C149        C  0.41577215  0.99319597  0.81324130    -0.04700
H150        H  0.38590818  0.02726550  0.77991978     0.09000
H151        H  0.42668752  0.97907554  0.81807224     0.10200
Cu152      Cu  0.37259065  0.04641506  0.83295731     0.44200
Cu153      Cu  0.40765994  0.00558111  0.86507316     0.42000
Cu154      Cu  0.37006787  0.04323211  0.89657309     0.43900
N155        N  0.35114623  0.06644040  0.85330716    -0.33400
N156        N  0.34960968  0.06450186  0.87650239    -0.27700
C157        C  0.33324220  0.07855910  0.88433407    -0.03800
C158        C  0.32416919  0.09005641  0.86514151     0.08500
C159        C  0.33600607  0.08209548  0.84579201     0.02300
H160        H  0.32849429  0.08039169  0.90266516     0.09900
H161        H  0.33339222  0.08688660  0.82752827     0.09000
N162        N  0.39296615  0.02155361  0.91299340    -0.34800
N163        N  0.40671527  0.00767555  0.90148175    -0.27000
C164        C  0.41939998  0.99595007  0.91715973    -0.02300
C165        C  0.41326680  0.00289046  0.93946604     0.06300
C166        C  0.39654421  0.01909437  0.93630303     0.04400
H167        H  0.43210224  0.98336555  0.91262188     0.09500
H168        H  0.38761340  0.02839985  0.94987230     0.08400
N169        N  0.45653683  0.95565545  0.15343328    -0.26000
N170        N  0.47249821  0.94426612  0.16504282    -0.33900
C171        C  0.46870850  0.94614149  0.18835397     0.02300
C172        C  0.44944822  0.95926486  0.19143128     0.08400
C173        C  0.44213670  0.96506994  0.16903899    -0.04700
H174        H  0.47960933  0.93912109  0.20199982     0.09000
H175        H  0.42787776  0.97591472  0.16441960     0.10200
Cu176      Cu  0.49983289  0.92851493  0.14875475     0.44200
Cu177      Cu  0.45618626  0.95924071  0.11705707     0.42000
Cu178      Cu  0.50754575  0.94034881  0.08677660     0.43900
N179        N  0.52773276  0.91753884  0.12955759    -0.33400
N180        N  0.53127257  0.92298109  0.10720310    -0.27700
C181        C  0.55159056  0.91459097  0.10047823    -0.03800
C182        C  0.56105803  0.90307313  0.11948932     0.08500
C183        C  0.54545240  0.90517341  0.13753411     0.02300
H184        H  0.55874129  0.91644644  0.08299198     0.09900
H185        H  0.54713809  0.89873877  0.15537021     0.09000
N186        N  0.47948018  0.95450657  0.06991354    -0.34800
N187        N  0.46073032  0.96115822  0.08086964    -0.27000
C188        C  0.44579749  0.96919896  0.06482057    -0.02300
C189        C  0.45568351  0.96744245  0.04286172     0.06300
C190        C  0.47695611  0.95810737  0.04660562     0.04400
H191        H  0.42908225  0.97591727  0.06889219     0.09500
H192        H  0.48969317  0.95425489  0.03342528     0.08400
N193        N  0.43912108  0.93936673  0.65254863    -0.26000
N194        N  0.45248756  0.92494318  0.66401105    -0.33900
C195        C  0.45051305  0.92858664  0.68734018     0.02300
C196        C  0.43515573  0.94608428  0.69051907     0.08400
C197        C  0.42825774  0.95257166  0.66821258    -0.04700
H198        H  0.46022775  0.91980468  0.70084885     0.09000
H199        H  0.41692695  0.96643865  0.66362752     0.10200
Cu200      Cu  0.47461200  0.90300858  0.64703865     0.44200
Cu201      Cu  0.43820020  0.94204270  0.61619517     0.42000
Cu202      Cu  0.48222151  0.91227842  0.58378885     0.43900
N203        N  0.49830016  0.88592588  0.62664859    -0.33400
N204        N  0.50187278  0.88991682  0.60395934    -0.27700
C205        C  0.51912622  0.87662574  0.59657357    -0.03800
C206        C  0.52649623  0.86347790  0.61541287     0.08500
C207        C  0.51291953  0.86984793  0.63419336     0.02300
H208        H  0.52550477  0.87620584  0.57868299     0.09900
H209        H  0.51374385  0.86352578  0.65213508     0.09000
N210        N  0.45787004  0.93324505  0.56800347    -0.34800
N211        N  0.44166477  0.94377227  0.57995202    -0.27000
C212        C  0.42827379  0.95538037  0.56483331    -0.02300
C213        C  0.43644804  0.95198059  0.54235583     0.06300
C214        C  0.45517545  0.93790760  0.54487082     0.04400
H215        H  0.41361612  0.96542058  0.56987211     0.09500
H216        H  0.46589087  0.93134785  0.53095347     0.08400
N217        N  0.40095238  0.00536923  0.33061203    -0.26000
N218        N  0.39514666  0.02434038  0.31948275    -0.33900
C219        C  0.40039478  0.02230254  0.29647141     0.02300
C220        C  0.40990791  0.00110036  0.29313112     0.08400
C221        C  0.41004199  0.99079058  0.31502576    -0.04700
H222        H  0.39738613  0.03523829  0.28319144     0.09000
H223        H  0.41624052  0.97395225  0.31935030     0.10200
Cu224      Cu  0.37967462  0.05183490  0.33598259     0.44200
Cu225      Cu  0.39641008  0.00000196  0.36645460     0.42000
Cu226      Cu  0.36184735  0.04105980  0.39639226     0.43900
N227        N  0.36136873  0.07492038  0.35623221    -0.33400
N228        N  0.35361777  0.07015299  0.37758923    -0.27700
C229        C  0.34185376  0.08805293  0.38574055    -0.03800
C230        C  0.34257642  0.10509128  0.36897800     0.08500
C231        C  0.35508190  0.09625331  0.35043646     0.02300
H232        H  0.33415097  0.08893376  0.40303577     0.09900
H233        H  0.35921659  0.10461851  0.33395137     0.09000
N234        N  0.37815405  0.01452220  0.41359400    -0.34800
N235        N  0.39110875  0.99955954  0.40258596    -0.27000
C236        C  0.40109495  0.98591335  0.41867598    -0.02300
C237        C  0.39403800  0.99267421  0.44076147     0.06300
C238        C  0.37956628  0.01084250  0.43700818     0.04400
H239        H  0.41325266  0.97266147  0.41462190     0.09500
H240        H  0.37144585  0.02121924  0.45027701     0.08400
N241        N  0.16566157  0.14684102  0.88367802    -0.26000
N242        N  0.15656254  0.16424650  0.87218221    -0.33900
C243        C  0.13379147  0.16169925  0.87148685     0.02300
C244        C  0.12829937  0.14177567  0.88323580     0.08400
C245        C  0.14887421  0.13287782  0.89082301    -0.04700
H246        H  0.12215849  0.17361452  0.86324030     0.09000
H247        H  0.15150942  0.11709885  0.90031686     0.10200
Cu248      Cu  0.17522794  0.19123151  0.85882927     0.44200
Cu249      Cu  0.20052884  0.14179470  0.88754303     0.42000
Cu250      Cu  0.23644569  0.18459679  0.86166609     0.43900
N251        N  0.19795007  0.21730698  0.85188494    -0.33400
N252        N  0.22032143  0.21485528  0.85329278    -0.27700
C253        C  0.23024886  0.23522334  0.85044226    -0.03800
C254        C  0.21332215  0.25127517  0.84708655     0.08500
C255        C  0.19303786  0.23934468  0.84801428     0.02300
H256        H  0.24839662  0.23822204  0.85180625     0.09900
H257        H  0.17596487  0.24629346  0.84726156     0.09000
N258        N  0.24846819  0.15332949  0.87295829    -0.34800
N259        N  0.23550974  0.13802554  0.88353125    -0.27000
C260        C  0.24824977  0.11962391  0.88865279    -0.02300
C261        C  0.27012542  0.12340534  0.88052904     0.06300
C262        C  0.26970399  0.14497493  0.87072491     0.04400
H263        H  0.24181552  0.10423770  0.89674013     0.09500
H264        H  0.28370071  0.15390319  0.86245990     0.08400
N265        N  0.26140046  0.38199266  0.88032987    -0.26000
N266        N  0.27147382  0.36372542  0.87178802    -0.33900
C267        C  0.29416357  0.36694605  0.87183180     0.02300
C268        C  0.29849068  0.38830464  0.88091587     0.08400
C269        C  0.27738256  0.39728113  0.88627473    -0.04700
H270        H  0.30647279  0.35480116  0.86535347     0.09000
H271        H  0.27382788  0.41412954  0.89287125     0.10200
Cu272      Cu  0.25359754  0.33589201  0.85960879     0.44200
Cu273      Cu  0.22644564  0.38643224  0.88028763     0.42000
Cu274      Cu  0.19280895  0.34397865  0.84985814     0.43900
N275        N  0.23136812  0.31009460  0.85062886    -0.33400
N276        N  0.20924763  0.31291557  0.84707613    -0.27700
C277        C  0.19948426  0.29244196  0.84421515    -0.03800
C278        C  0.21630103  0.27603137  0.84607598     0.08500
C279        C  0.23628716  0.28782371  0.85002617     0.02300
H280        H  0.18135300  0.28968506  0.84219016     0.09900
H281        H  0.25297387  0.28072328  0.85358172     0.09000
N282        N  0.18017527  0.37529809  0.86012714    -0.34800
N283        N  0.19220271  0.39008611  0.87245006    -0.27000
C284        C  0.17912546  0.40821378  0.87721622    -0.02300
C285        C  0.15787859  0.40474847  0.86726798     0.06300
C286        C  0.15914597  0.38380230  0.85644601     0.04400
H287        H  0.18496604  0.42313762  0.88649422     0.09500
H288        H  0.14576161  0.37531937  0.84672004     0.08400
N289        N  0.96263643  0.06274926  0.33815492    -0.26000
N290        N  0.97675729  0.07658059  0.32692419    -0.33900
C291        C  0.97176508  0.07636871  0.30373972     0.02300
C292        C  0.95374834  0.06170967  0.30030815     0.08400
C293        C  0.94832052  0.05336021  0.32238156    -0.04700
H294        H  0.98015353  0.08669300  0.29051747     0.09000
H295        H  0.93456989  0.04186641  0.32678247     0.10200
Cu296      Cu  0.00064036  0.09705244  0.34355264     0.44200
Cu297      Cu  0.96207332  0.05857484  0.37456967     0.42000
Cu298      Cu  0.99392560  0.10085375  0.40648733     0.43900
N299        N  0.01847254  0.11992691  0.36433486    -0.33400
N300        N  0.01478681  0.12218320  0.38720559    -0.27700
C301        C  0.02707151  0.13973330  0.39534766    -0.03800
C302        C  0.03927323  0.14879601  0.37673128     0.08500
C303        C  0.03361170  0.13574976  0.35737436     0.02300
H304        H  0.02723902  0.14533057  0.41350875     0.09900
H305        H  0.03938736  0.13811690  0.33941910     0.09000
N306        N  0.97540479  0.07541272  0.42272759    -0.34800
N307        N  0.96395362  0.05963999  0.41114656    -0.27000
C308        C  0.95459066  0.04518281  0.42683079    -0.02300
C309        C  0.96052472  0.05232035  0.44918563     0.06300
C310        C  0.97368789  0.07145441  0.44603388     0.04400
H311        H  0.94443500  0.03050703  0.42227218     0.09500
H312        H  0.98170207  0.08158287  0.45959806     0.08400
N313        N  0.92938732  0.00312529  0.66398722    -0.26000
N314        N  0.92037456  0.98627086  0.67632991    -0.33900
C315        C  0.92099354  0.99157825  0.69937135     0.02300
C316        C  0.93085152  0.01272037  0.70148027     0.08400
C317        C  0.93602547  0.01961178  0.67883076    -0.04700
H318        H  0.91461685  0.98088315  0.71347510     0.09000
H319        H  0.94389130  0.03543506  0.67349091     0.10200
Cu320      Cu  0.90689519  0.95727601  0.66118071     0.44200
Cu321      Cu  0.93149675  0.00308066  0.62756862     0.42000
Cu322      Cu  0.90083290  0.95743318  0.59782066     0.43900
N323        N  0.89112239  0.93147674  0.64255203    -0.33400
N324        N  0.88771010  0.93204100  0.61948364    -0.27700
C325        C  0.87594560  0.91340090  0.61313652    -0.03800
C326        C  0.87204015  0.90043947  0.63319549     0.08500
C327        C  0.88204784  0.91230918  0.65143372     0.02300
H328        H  0.87120378  0.90928366  0.59519580     0.09900
H329        H  0.88247428  0.90750402  0.66988015     0.09000
N330        N  0.91855160  0.98309599  0.58046545    -0.34800
N331        N  0.92990062  0.99944190  0.59131449    -0.27000
C332        C  0.93954673  0.01308748  0.57507828    -0.02300
C333        C  0.93398387  0.00489014  0.55307302     0.06300
C334        C  0.92070075  0.98593064  0.55699964     0.04400
H335        H  0.94963956  0.02796662  0.57904620     0.09500
H336        H  0.91305358  0.97506965  0.54383404     0.08400
N337        N  0.89054638  0.04013480  0.16081053    -0.26000
N338        N  0.87454775  0.02894742  0.17243854    -0.33900
C339        C  0.87857470  0.03069247  0.19574349     0.02300
C340        C  0.89795859  0.04362725  0.19879450     0.08400
C341        C  0.90516518  0.04934848  0.17638307    -0.04700
H342        H  0.86867495  0.02237886  0.20935674     0.09000
H343        H  0.92040479  0.05866139  0.17168519     0.10200
Cu344      Cu  0.84962093  0.00971627  0.15593243     0.44200
Cu345      Cu  0.89317120  0.03993887  0.12439183     0.42000
Cu346      Cu  0.85660313  0.00000199  0.09319678     0.43900
N347        N  0.82921414  0.98799360  0.13642496    -0.33400
N348        N  0.83249318  0.98346483  0.11384420    -0.27700
C349        C  0.81751605  0.96744339  0.10706718    -0.03800
C350        C  0.80405421  0.96190368  0.12626521     0.08500
C351        C  0.81177392  0.97536444  0.14447723     0.02300
H352        H  0.81621001  0.96070796  0.08938168     0.09900
H353        H  0.80551601  0.97560767  0.16241311     0.09000
N354        N  0.88128240  0.01991881  0.07695055    -0.34800
N355        N  0.89438119  0.03453353  0.08834731    -0.27000
C356        C  0.90865657  0.04448913  0.07293534    -0.02300
C357        C  0.90427173  0.03574085  0.05088716     0.06300
C358        C  0.88688132  0.02023736  0.05392703     0.04400
H359        H  0.92140864  0.05698895  0.07752760     0.09500
H360        H  0.87899056  0.00984803  0.04050079     0.08400
N361        N  0.96399758  0.06848355  0.84052264    -0.26000
N362        N  0.97887414  0.08122495  0.82903152    -0.33900
C363        C  0.97542363  0.07892520  0.80570199     0.02300
C364        C  0.95748972  0.06411703  0.80251479     0.08400
C365        C  0.95064086  0.05772822  0.82484027    -0.04700
H366        H  0.98585177  0.08664584  0.79213629     0.09000
H367        H  0.93756610  0.04551584  0.82936726     0.10200
Cu368      Cu  0.00478291  0.09885863  0.84562928     0.44200
Cu369      Cu  0.96384207  0.06517372  0.87684407     0.42000
Cu370      Cu  0.01203921  0.08932478  0.90855015     0.43900
N371        N  0.03224529  0.11069115  0.86493986    -0.33400
N372        N  0.03561607  0.10629766  0.88759365    -0.27700
C373        C  0.05597472  0.11482556  0.89406821    -0.03800
C374        C  0.06568414  0.12520169  0.87453170     0.08500
C375        C  0.05012894  0.12238172  0.85649231     0.02300
H376        H  0.06306275  0.11364883  0.91167845     0.09900
H377        H  0.05198992  0.12780013  0.83832736     0.09000
N378        N  0.98420988  0.07413636  0.92486704    -0.34800
N379        N  0.96673353  0.06542277  0.91320125    -0.27000
C380        C  0.95124469  0.05768756  0.92870715    -0.02300
C381        C  0.95937290  0.06174720  0.95110959     0.06300
C382        C  0.98025270  0.07217362  0.94818095     0.04400
H383        H  0.93515052  0.04995503  0.92396910     0.09500
H384        H  0.99158496  0.07815499  0.96190072     0.08400
N385        N  0.58776118  0.70781667  0.63209501    -0.26000
N386        N  0.60616582  0.69923627  0.62206221    -0.33900
C387        C  0.60315481  0.67677764  0.61904395     0.02300
C388        C  0.58187325  0.67102064  0.62776911     0.08400
C389        C  0.57268130  0.69104958  0.63602826    -0.04700
H390        H  0.61559476  0.66552190  0.61125576     0.09000
H391        H  0.55595433  0.69340424  0.64365778     0.10200
Cu392      Cu  0.63456986  0.71857224  0.61337785     0.44200
Cu393      Cu  0.58280555  0.74221563  0.63743485     0.42000
Cu394      Cu  0.62607598  0.77959524  0.61377173     0.43900
N395        N  0.66078617  0.74191898  0.60895431    -0.33400
N396        N  0.65768461  0.76417804  0.60895830    -0.27700
C397        C  0.67810848  0.77447507  0.60730993    -0.03800
C398        C  0.69486560  0.75791920  0.60632773     0.08500
C399        C  0.68325405  0.73748497  0.60736463     0.02300
H400        H  0.68060511  0.79266912  0.60769613     0.09900
H401        H  0.69061188  0.72062513  0.60771782     0.09000
N402        N  0.59360498  0.79043639  0.62334585    -0.34800
N403        N  0.57843503  0.77690223  0.63336777    -0.27000
C404        C  0.55940943  0.78882175  0.63793310    -0.02300
C405        C  0.56253901  0.81080833  0.63005617     0.06300
C406        C  0.58443564  0.81131714  0.62092042     0.04400
H407        H  0.54406399  0.78174998  0.64555515     0.09500
H408        H  0.59307645  0.82573327  0.61314642     0.08400
N409        N  0.82747084  0.81239254  0.62769122    -0.26000
N410        N  0.80870796  0.82078411  0.61802313    -0.33900
C411        C  0.81156653  0.84322893  0.61440017     0.02300
C412        C  0.83300414  0.84923585  0.62247939     0.08400
C413        C  0.84260511  0.82925727  0.63081971    -0.04700
H414        H  0.79904551  0.85431866  0.60629434     0.09000
H415        H  0.85972125  0.82689810  0.63754604     0.10200
Cu416      Cu  0.78025540  0.80099369  0.61029280     0.44200
Cu417      Cu  0.83309430  0.77799776  0.63285019     0.42000
Cu418      Cu  0.78868762  0.73987775  0.61340280     0.43900
N419        N  0.75391985  0.77741630  0.60761989    -0.33400
N420        N  0.75699472  0.75517502  0.60886359    -0.27700
C421        C  0.73655159  0.74482872  0.60803004    -0.03800
C422        C  0.71979195  0.76132915  0.60622857     0.08500
C423        C  0.73142509  0.78177763  0.60598770     0.02300
H424        H  0.73406996  0.72666340  0.60934153     0.09900
H425        H  0.72407119  0.79863179  0.60534391     0.09000
N426        N  0.82189282  0.72952442  0.62059272    -0.34800
N427        N  0.83773559  0.74336283  0.62882299    -0.27000
C428        C  0.85733312  0.73177594  0.63157320    -0.02300
C429        C  0.85370516  0.70958043  0.62456923     0.06300
C430        C  0.83110323  0.70877777  0.61761233     0.04400
H431        H  0.87326042  0.73924804  0.63723257     0.09500
H432        H  0.82206374  0.69423512  0.61069933     0.08400
N433        N  0.01680095  0.51149112  0.34918523    -0.26000
N434        N  0.02132387  0.49112492  0.34058335    -0.33900
C435        C  0.01630676  0.49100083  0.31738663     0.02300
C436        C  0.00828503  0.51228065  0.31124657     0.08400
C437        C  0.00878443  0.52486029  0.33171245    -0.04700
H438        H  0.01843255  0.47653536  0.30589111     0.09000
H439        H  0.00369356  0.54240730  0.33379696     0.10200
Cu440      Cu  0.03493158  0.46475367  0.36061125     0.44200
Cu441      Cu  0.02169660  0.52026938  0.38426016     0.42000
Cu442      Cu  0.05403751  0.48019000  0.41930643     0.43900
N443        N  0.05241172  0.44287560  0.38310753    -0.33400
N444        N  0.06067185  0.44897850  0.40386609    -0.27700
C445        C  0.07222147  0.43138130  0.41334980    -0.03800
C446        C  0.07077247  0.41324309  0.39803776     0.08500
C447        C  0.05811542  0.42111470  0.37903301     0.02300
H448        H  0.08058055  0.43161370  0.43038255     0.09900
H449        H  0.05376755  0.41188764  0.36318262     0.09000
N450        N  0.03987239  0.50969280  0.43286350    -0.34800
N451        N  0.02772922  0.52421806  0.42011115    -0.27000
C452        C  0.01905360  0.54021240  0.43442917    -0.02300
C453        C  0.02613526  0.53547195  0.45717691     0.06300
C454        C  0.03924428  0.51605255  0.45563077     0.04400
H455        H  0.00769713  0.55370738  0.42881545     0.09500
H456        H  0.04688696  0.50664454  0.47007750     0.08400
N457        N  0.99707868  0.59760260  0.66777966    -0.26000
N458        N  0.98500981  0.61287882  0.67938193    -0.33900
C459        C  0.98967809  0.61108674  0.70255368     0.02300
C460        C  0.00545895  0.59393405  0.70553660     0.08400
C461        C  0.00979562  0.58566617  0.68326002    -0.04700
H462        H  0.98148963  0.62090387  0.71623285     0.09000
H463        H  0.02067213  0.57149415  0.67870854     0.10200
Cu464      Cu  0.96107495  0.63377023  0.66349695     0.44200
Cu465      Cu  0.99416601  0.59258079  0.63175938     0.42000
Cu466      Cu  0.94831558  0.62315704  0.60193655     0.43900
N467        N  0.93560001  0.65035818  0.64490952    -0.33400
N468        N  0.93014718  0.64589873  0.62275310    -0.27700
C469        C  0.91240495  0.65914532  0.61637254    -0.03800
C470        C  0.90665506  0.67265658  0.63542175     0.08500
C471        C  0.92177464  0.66672076  0.65309612     0.02300
H472        H  0.90478882  0.65942661  0.59896496     0.09900
H473        H  0.92264923  0.67374978  0.67068148     0.09000
N474        N  0.97106191  0.60155060  0.58493695    -0.34800
N475        N  0.98776014  0.59055938  0.59586752    -0.27000
C476        C  0.99973977  0.57862440  0.57995025    -0.02300
C477        C  0.99014413  0.58232078  0.55803167     0.06300
C478        C  0.97203085  0.59688699  0.56171534     0.04400
H479        H  0.01447136  0.56822235  0.58404434     0.09500
H480        H  0.96056578  0.60379140  0.54851230     0.08400
N481        N  0.96246548  0.55474436  0.16886041    -0.26000
N482        N  0.94824348  0.56807101  0.18050157    -0.33900
C483        C  0.95185549  0.56539692  0.20381360     0.02300
C484        C  0.96914948  0.54972912  0.20686359     0.08400
C485        C  0.97551699  0.54328273  0.18445258    -0.04700
H486        H  0.94239472  0.57401892  0.21748761     0.09000
H487        H  0.98849965  0.53103002  0.17978870     0.10200
Cu488      Cu  0.92374592  0.58847112  0.16435450     0.44200
Cu489      Cu  0.96319021  0.55226477  0.13236265     0.42000
Cu490      Cu  0.91719831  0.58097100  0.10159587     0.43900
N491        N  0.89794802  0.60369845  0.14464003    -0.33400
N492        N  0.89489793  0.59987489  0.12187926    -0.27700
C493        C  0.87549335  0.61002342  0.11476495    -0.03800
C494        C  0.86601308  0.62097263  0.13394091     0.08500
C495        C  0.88076236  0.61677948  0.15252477     0.02300
H496        H  0.86872003  0.60931657  0.09700680     0.09900
H497        H  0.87856373  0.62188838  0.17069262     0.09000
N498        N  0.94315543  0.56364097  0.08472936    -0.34800
N499        N  0.96007058  0.55324582  0.09590191    -0.27000
C500        C  0.97467558  0.54483302  0.07987881    -0.02300
C501        C  0.96645739  0.55023746  0.05771477     0.06300
C502        C  0.94653288  0.56214298  0.06133142     0.04400
H503        H  0.99037351  0.53599697  0.08409031     0.09500
H504        H  0.93562806  0.56972731  0.04801646     0.08400
N505        N  0.03645774  0.53639424  0.84573217    -0.26000
N506        N  0.05029570  0.52249557  0.83434508    -0.33900
C507        C  0.04975818  0.52759533  0.81120143     0.02300
C508        C  0.03488990  0.54549690  0.80800493     0.08400
C509        C  0.02670504  0.55070908  0.83011987    -0.04700
H510        H  0.05965984  0.51906707  0.79780118     0.09000
H511        H  0.01474276  0.56401137  0.83459895     0.10200
Cu512      Cu  0.07008711  0.49793575  0.85073295     0.44200
Cu513      Cu  0.03187242  0.53559212  0.88196229     0.42000
Cu514      Cu  0.06904574  0.49731929  0.91439583     0.43900
N515        N  0.09052046  0.47700370  0.87121051    -0.33400
N516        N  0.09090018  0.47755581  0.89452486    -0.27700
C517        C  0.10692472  0.46305690  0.90247650    -0.03800
C518        C  0.11676608  0.45262227  0.88325870     0.08500
C519        C  0.10602519  0.46186328  0.86368791     0.02300
H520        H  0.11096056  0.46018680  0.92089107     0.09900
H521        H  0.10963671  0.45836980  0.84534347     0.09000
N522        N  0.04386424  0.51678062  0.92994883    -0.34800
N523        N  0.03025950  0.53076189  0.91815780    -0.27000
C524        C  0.01537196  0.54016517  0.93327994    -0.02300
C525        C  0.01991655  0.53161415  0.95550521     0.06300
C526        C  0.03798735  0.51686678  0.95285932     0.04400
H527        H  0.00204083  0.55201557  0.92836076     0.09500
H528        H  0.04604317  0.50666202  0.96646115     0.08400
N529        N  0.08595761  0.31184175  0.39463054    -0.26000
N530        N  0.10657378  0.32074735  0.39664183    -0.33900
C531        C  0.10471563  0.34354572  0.39686202     0.02300
C532        C  0.08187488  0.34917690  0.39458754     0.08400
C533        C  0.07052992  0.32870378  0.39307888    -0.04700
H534        H  0.11900469  0.35512210  0.39759294     0.09000
H535        H  0.05237796  0.32622544  0.39081133     0.10200
Cu536      Cu  0.13650131  0.30166522  0.39671290     0.44200
Cu537      Cu  0.07934289  0.27725487  0.39374887     0.42000
Cu538      Cu  0.12855336  0.24100006  0.39062619     0.43900
N539        N  0.16329455  0.27854467  0.39425433    -0.33400
N540        N  0.16019533  0.25639489  0.39224225    -0.27700
C541        C  0.18057992  0.24605411  0.39077182    -0.03800
C542        C  0.19737642  0.26245589  0.39172695     0.08500
C543        C  0.18583986  0.28288728  0.39392223     0.02300
H544        H  0.18293195  0.22794724  0.38869335     0.09900
H545        H  0.19324279  0.29967354  0.39496976     0.09000
N546        N  0.09546865  0.22890574  0.39034005    -0.34800
N547        N  0.07736490  0.24211854  0.39250861    -0.27000
C548        C  0.05855080  0.22907802  0.39306697    -0.02300
C549        C  0.06517266  0.20668437  0.39063318     0.06300
C550        C  0.08867851  0.20715200  0.38895122     0.04400
H551        H  0.04132271  0.23545615  0.39474200     0.09500
H552        H  0.10004419  0.19275242  0.38738730     0.08400
N553        N  0.33023659  0.20662791  0.36922863    -0.26000
N554        N  0.30986064  0.19825864  0.37405288    -0.33900
C555        C  0.31065570  0.17549674  0.37216117     0.02300
C556        C  0.33255627  0.16934011  0.36560338     0.08400
C557        C  0.34444896  0.18949820  0.36379047    -0.04700
H558        H  0.29625355  0.16435207  0.37494276     0.09000
H559        H  0.36222891  0.19155673  0.35920515     0.10200
Cu560      Cu  0.28171057  0.21843593  0.38165136     0.44200
Cu561      Cu  0.33789791  0.24085924  0.37093827     0.42000
Cu562      Cu  0.29067292  0.27958782  0.37952566     0.43900
N563        N  0.25586462  0.24232980  0.38570347    -0.33400
N564        N  0.25912135  0.26455106  0.38490248    -0.27700
C565        C  0.23892789  0.27514460  0.38741901    -0.03800
C566        C  0.22214788  0.25881624  0.38974752     0.08500
C567        C  0.23348358  0.23821731  0.38859631     0.02300
H568        H  0.23661154  0.29337516  0.38704729     0.09900
H569        H  0.22600258  0.22144722  0.38941838     0.09000
N570        N  0.32427585  0.28997915  0.37591670    -0.34800
N571        N  0.34154764  0.27566381  0.37389112    -0.27000
C572        C  0.36117876  0.28740142  0.37400459    -0.02300
C573        C  0.35599991  0.31018771  0.37570889     0.06300
C574        C  0.33245995  0.31130434  0.37682861     0.04400
H575        H  0.37798020  0.27988602  0.37279805     0.09500
H576        H  0.32211159  0.32637509  0.37897856     0.08400
C577        C  0.00774703  0.53620748  0.97690051    -0.17200
C578        C  0.99785644  0.53950435  0.99517255     0.06800
C579        C  0.98665762  0.54300911  0.01684908     0.08700
C580        C  0.97735074  0.54607562  0.03549298    -0.18100
C581        C  0.02945321  0.55669276  0.78616558    -0.17200
C582        C  0.02482790  0.56587009  0.76772943     0.06800
C583        C  0.01898542  0.57622042  0.74606282     0.08700
C584        C  0.01330632  0.58460003  0.72753320    -0.18100
C585        C  0.08108864  0.39056932  0.40129151    -0.15200
C586        C  0.07158330  0.37192122  0.39196441    -0.30300
H587        H  0.09623455  0.38908509  0.41225983     0.13900
H588        H  0.05536530  0.37321877  0.38274985     0.14400
C589        C  0.00068630  0.51981112  0.28835007    -0.17200
C590        C  0.99394094  0.52643718  0.26939445     0.06800
C591        C  0.98561709  0.53444633  0.24744634     0.08700
C592        C  0.97822485  0.54139737  0.22887532    -0.18100
C593        C  0.01895817  0.54667161  0.47842843    -0.17200
C594        C  0.01247718  0.55547263  0.49640220     0.06800
C595        C  0.00458118  0.56523472  0.51762566     0.08700
C596        C  0.99784470  0.57319888  0.53591888    -0.18100
C597        C  0.87060178  0.69103265  0.62312398    -0.15200
C598        C  0.88934188  0.69077574  0.63676111    -0.30300
H599        H  0.86722719  0.67705304  0.61117548     0.13900
H600        H  0.89173047  0.70383740  0.65001363     0.14400
C601        C  0.91589959  0.04132898  0.02936173    -0.17200
C602        C  0.92600531  0.04621401  0.01156158     0.06800
C603        C  0.93797184  0.05192431  0.99079937     0.08700
C604        C  0.94800863  0.05658449  0.97289438    -0.18100
C605        C  0.86079275  0.87811029  0.63512695    -0.15200
C606        C  0.84388639  0.87178536  0.62055917    -0.30300
H607        H  0.86591269  0.86700943  0.64956877     0.13900
H608        H  0.83742535  0.88363202  0.60738446     0.14400
C609        C  0.93502126  0.02496113  0.72288896    -0.17200
C610        C  0.93896820  0.03490227  0.74096284     0.06800
C611        C  0.94437350  0.04595542  0.76226143     0.08700
C612        C  0.94984754  0.05470182  0.78058068    -0.18100
C613        C  0.05017387  0.18667135  0.39054760    -0.15200
C614        C  0.05467722  0.16850342  0.37712983    -0.30300
H615        H  0.03447071  0.18741141  0.40064623     0.13900
H616        H  0.06914223  0.16868021  0.36519695     0.14400
C617        C  0.94184642  0.05756906  0.27853363    -0.17200
C618        C  0.93172796  0.05448242  0.26027165     0.06800
C619        C  0.91981519  0.05102913  0.23888562     0.08700
C620        C  0.90971896  0.04790767  0.22061798    -0.18100
C621        C  0.95481493  0.04171412  0.47125863    -0.17200
C622        C  0.95024650  0.03303524  0.48995499     0.06800
C623        C  0.94486991  0.02302748  0.51191448     0.08700
C624        C  0.94005831  0.01462447  0.53067889    -0.18100
C625        C  0.13842106  0.42056634  0.86691927    -0.15200
C626        C  0.13562198  0.43614650  0.88386571    -0.30300
H627        H  0.12593306  0.41902683  0.85282971     0.13900
H628        H  0.14702191  0.43640351  0.89899768     0.14400
C629        C  0.10558906  0.13154726  0.88670821    -0.15200
C630        C  0.08798690  0.13652203  0.87241223    -0.30300
H631        H  0.10372978  0.11864987  0.90033488     0.13900
H632        H  0.09038331  0.14808102  0.85763524     0.14400
C633        C  0.34175610  0.14636297  0.36140807    -0.15200
C634        C  0.33247889  0.12789024  0.37144558    -0.30300
H635        H  0.35730526  0.14479073  0.35116672     0.13900
H636        H  0.31813335  0.12972571  0.38336404     0.14400
C637        C  0.54476609  0.84617300  0.61512087    -0.15200
C638        C  0.54539593  0.82912956  0.63095195    -0.30300
H639        H  0.55708198  0.84669937  0.60084553     0.13900
H640        H  0.53195459  0.82757590  0.64400750     0.14400
C641        C  0.42697916  0.96087707  0.52078221    -0.17200
C642        C  0.41887518  0.96832642  0.50275526     0.06800
C643        C  0.40958892  0.97691636  0.48148591     0.08700
C644        C  0.40212525  0.98412543  0.46306608    -0.18100
C645        C  0.41795019  0.99161278  0.27134472    -0.17200
C646        C  0.42481269  0.98363723  0.25312610     0.06800
C647        C  0.43304043  0.97455408  0.23174583     0.08700
C648        C  0.44032481  0.96724892  0.21340195    -0.18100
C649        C  0.30568328  0.10706107  0.86491922    -0.15200
C650        C  0.28927174  0.10716912  0.88140621    -0.30300
H651        H  0.30480634  0.11883594  0.85012672     0.13900
H652        H  0.28901693  0.09410048  0.89499980     0.14400
C653        C  0.41502657  0.98851651  0.76915474    -0.17200
C654        C  0.41967127  0.97868113  0.75119766     0.06800
C655        C  0.42497520  0.96695009  0.73026497     0.08700
C656        C  0.42952948  0.95712370  0.71227848    -0.18100
C657        C  0.44611929  0.97450556  0.02069213    -0.17200
C658        C  0.43844669  0.98070483  0.00201553     0.06800
C659        C  0.42973218  0.98823671  0.98014071     0.08700
C660        C  0.42230220  0.99484521  0.96151047    -0.18100
C661        C  0.78543230  0.92579293  0.11610145    -0.15200
C662        C  0.78487860  0.94581895  0.12729102    -0.30300
H663        H  0.80070419  0.92058788  0.10675280     0.13900
H664        H  0.77053286  0.94998825  0.13856745     0.14400
C665        C  0.60156409  0.89924811  0.10944520    -0.15200
C666        C  0.58324018  0.89137511  0.12093528    -0.30300
H667        H  0.60024826  0.91471450  0.09898286     0.13900
H668        H  0.58502763  0.87730311  0.13328084     0.14400
C669        C  0.82585118  0.62579641  0.12279702    -0.15200
C670        C  0.84398997  0.63303880  0.13509546    -0.30300
H671        H  0.82723630  0.61059102  0.11209553     0.13900
H672        H  0.84211485  0.64677616  0.14767795     0.14400
C673        C  0.57612276  0.63218468  0.61285075    -0.15200
C674        C  0.57078621  0.64856864  0.62827156    -0.30300
H675        H  0.58853362  0.63546714  0.59905664     0.13900
H676        H  0.55708764  0.64592216  0.64085234     0.14400
C677        C  0.36862061  0.34897870  0.36658803    -0.15200
C678        C  0.37249985  0.32891352  0.37709957    -0.30300
H679        H  0.35328225  0.35156797  0.35612440     0.13900
H680        H  0.38893549  0.32555469  0.38531016     0.14400
C681        C  0.48752866  0.46138615  0.45881408    -0.17200
C682        C  0.49440441  0.46951139  0.47693859     0.06800
C683        C  0.50206483  0.47901770  0.49830855     0.08700
C684        C  0.50817041  0.48709732  0.51674606    -0.18100
C685        C  0.32046923  0.40021170  0.88287814    -0.15200
C686        C  0.33822813  0.39505475  0.86901212    -0.30300
H687        H  0.32143787  0.41464915  0.89468786     0.13900
H688        H  0.33662607  0.38180914  0.85584547     0.14400
C689        C  0.49517382  0.49364687  0.70938000    -0.17200
C690        C  0.48903164  0.48716150  0.72850607     0.06800
C691        C  0.48149877  0.48052934  0.75109213     0.08700
C692        C  0.47450384  0.47528450  0.77030720    -0.18100
C693        C  0.63867305  0.58501567  0.12500775    -0.15200
C694        C  0.64040152  0.60502703  0.11375430    -0.30300
H695        H  0.65191918  0.57971312  0.13729061     0.13900
H696        H  0.62625409  0.61131080  0.10316551     0.14400
C697        C  0.51340995  0.47538419  0.20903727    -0.17200
C698        C  0.50428773  0.46946462  0.22706915     0.06800
C699        C  0.49355168  0.46301545  0.24831346     0.08700
C700        C  0.48460574  0.45769240  0.26663611    -0.18100
C701        C  0.50406326  0.50258789  0.01920867    -0.17200
C702        C  0.49421377  0.49812802  0.00110574     0.06800
C703        C  0.48224550  0.49280812  0.98018391     0.08700
C704        C  0.47204280  0.48839345  0.96228020    -0.18100
loop_ 
_geom_bond_atom_site_label_1 
_geom_bond_atom_site_label_2 
_geom_bond_distance 
_geom_bond_site_symmetry_2 
_ccdc_geom_bond_type 
N1            N2   1.322       .  A
N1            C5   1.345       .  A
N1           Cu9   2.068       .  S
N2            C3   1.345       .  A
N2           Cu8   2.069       .  S
C3            C4   1.380       .  A
C3            H6   1.082       .  S
C4            C5   1.379       .  A
C4          C697   1.436       .  S
C5            H7   1.082       .  S
Cu8          N11   2.070       .  S
Cu9          N19   2.069       .  S
Cu10         N12   2.083       .  S
Cu10         N18   2.083       .  S
N11          N12   1.323       .  A
N11          C15   1.344       .  A
N12          C13   1.347       .  A
C13          C14   1.385       .  A
C13          H16   1.082       .  S
C14          C15   1.379       .  A
C14         C693   1.474       .  S
C15          H17   1.082       .  S
N18          N19   1.324       .  A
N18          C22   1.348       .  A
N19          C20   1.344       .  A
C20          C21   1.377       .  A
C20          H23   1.082       .  S
C21          C22   1.382       .  A
C21         C701   1.438       .  S
C22          H24   1.082       .  S
N25          N26   1.323       .  A
N25          C29   1.345       .  A
N25         Cu33   2.070       .  S
N26          C27   1.344       .  A
N26         Cu32   2.068       .  S
C27          C28   1.378       .  A
C27          H30   1.082       .  S
C28          C29   1.379       .  A
C28         C692   1.434       .  S
C29          H31   1.082       .  S
Cu32         N35   2.068       .  S
Cu33         N43   2.070       .  S
Cu34         N36   2.074       .  S
Cu34         N42   2.074       .  S
N35          N36   1.322       .  A
N35          C39   1.344       .  A
N36          C37   1.344       .  A
C37          C38   1.384       .  A
C37          H40   1.082       .  S
C38          C39   1.380       .  A
C38         C686   1.473       .  S
C39          H41   1.082       .  S
N42          N43   1.323       .  A
N42          C46   1.346       .  A
N43          C44   1.344       .  A
C44          C45   1.379       .  A
C44          H47   1.082       .  S
C45          C46   1.381       .  A
C45         C704   1.438       .  S
C46          H48   1.082       .  S
N49          N50   1.323       .  A
N49          C53   1.344       .  A
N49         Cu57   2.067       .  S
N50          C51   1.346       .  A
N50         Cu56   2.073       .  S
C51          C52   1.380       .  A
C51          H54   1.082       .  S
C52          C53   1.378       .  A
C52         C700   1.436       .  S
C53          H55   1.082       .  S
Cu56         N59   2.072       .  S
Cu57         N67   2.067       .  S
Cu58         N60   2.073       .  S
Cu58         N66   2.073       .  S
N59          N60   1.323       .  A
N59          C63   1.345       .  A
N60          C61   1.345       .  A
C61          C62   1.382       .  A
C61          H64   1.082       .  S
C62          C63   1.380       .  A
C62         C677   1.470       .  S
C63          H65   1.082       .  S
N66          N67   1.323       .  A
N66          C70   1.345       .  A
N67          C68   1.344       .  A
C68          C69   1.378       .  A
C68          H71   1.082       .  S
C69          C70   1.379       .  A
C69         C681   1.434       .  S
C70          H72   1.082       .  S
N73          N74   1.323       .  A
N73          C77   1.346       .  A
N73         Cu81   2.072       .  S
N74          C75   1.343       .  A
N74         Cu80   2.066       .  S
C75          C76   1.376       .  A
C75          H78   1.082       .  S
C76          C77   1.380       .  A
C76         C689   1.433       .  S
C77          H79   1.082       .  S
Cu80         N83   2.067       .  S
Cu81         N91   2.072       .  S
Cu82         N84   2.071       .  S
Cu82         N90   2.071       .  S
N83          N84   1.321       .  A
N83          C87   1.344       .  A
N84          C85   1.345       .  A
C85          C86   1.382       .  A
C85          H88   1.082       .  S
C86          C87   1.385       .  A
C86         C673   1.475       .  S
C87          H89   1.082       .  S
N90          N91   1.324       .  A
N90          C94   1.345       .  A
N91          C92   1.345       .  A
C92          C93   1.379       .  A
C92          H95   1.082       .  S
C93          C94   1.378       .  A
C93         C684   1.434       .  S
C94          H96   1.082       .  S
N97          N98   1.323       .  A
N97         C101   1.344       .  A
N97        Cu105   2.073       .  S
N98          C99   1.347       .  A
N98        Cu104   2.079       .  S
C99         C100   1.385       .  A
C99         H102   1.082       .  S
C100        C101   1.380       .  A
C100        C669   1.473       .  S
C101        H103   1.082       .  S
Cu104       N107   2.080       .  S
Cu105       N115   2.073       .  S
Cu106       N108   2.071       .  S
Cu106       N114   2.070       .  S
N107        N108   1.323       .  A
N107        C111   1.346       .  A
N108        C109   1.344       .  A
C109        C110   1.382       .  A
C109        H112   1.082       .  S
C110        C111   1.384       .  A
C110        C134   1.471       .  S
C111        H113   1.082       .  S
N114        N115   1.322       .  A
N114        C118   1.345       .  A
N115        C116   1.345       .  A
C116        C117   1.385       .  A
C116        H119   1.082       .  S
C117        C118   1.381       .  A
C117        C694   1.474       .  S
C118        H120   1.082       .  S
N121        N122   1.322       .  A
N121        C125   1.343       .  A
N121       Cu129   2.066       .  S
N122        C123   1.347       .  A
N122       Cu128   2.077       .  S
C123        C124   1.386       .  A
C123        H126   1.082       .  S
C124        C125   1.379       .  A
C124        C665   1.473       .  S
C125        H127   1.082       .  S
Cu128       N131   2.078       .  S
Cu129       N139   2.066       .  S
Cu130       N132   2.079       .  S
Cu130       N138   2.079       .  S
N131        N132   1.324       .  A
N131        C135   1.345       .  A
N132        C133   1.346       .  A
C133        C134   1.383       .  A
C133        H136   1.082       .  S
C134        C135   1.383       .  A
C135        H137   1.082       .  S
N138        N139   1.322       .  A
N138        C142   1.347       .  A
N139        C140   1.343       .  A
C140        C141   1.382       .  A
C140        H143   1.082       .  S
C141        C142   1.383       .  A
C141        C661   1.474       .  S
C142        H144   1.082       .  S
N145        N146   1.324       .  A
N145        C149   1.344   1_545  A
N145       Cu153   2.069       .  S
N146        C147   1.346       .  A
N146       Cu152   2.078       .  S
C147        C148   1.380   1_545  A
C147        H150   1.082       .  S
C148        C149   1.378       .  A
C148        C653   1.436       .  S
C149        H151   1.082       .  S
Cu152       N155   2.078       .  S
Cu153       N163   2.068       .  S
Cu154       N156   2.068       .  S
Cu154       N162   2.068       .  S
N155        N156   1.322       .  A
N155        C159   1.346       .  A
N156        C157   1.344       .  A
C157        C158   1.383       .  A
C157        H160   1.082       .  S
C158        C159   1.383       .  A
C158        C649   1.475       .  S
C159        H161   1.082       .  S
N162        N163   1.323       .  A
N162        C166   1.344       .  A
N163        C164   1.345   1_545  A
C164        C165   1.379   1_565  A
C164        H167   1.082       .  S
C165        C166   1.378       .  A
C165        C660   1.434   1_545  S
C166        H168   1.082       .  S
N169        N170   1.323       .  A
N169        C173   1.345       .  A
N169       Cu177   2.071       .  S
N170        C171   1.345       .  A
N170       Cu176   2.072       .  S
C171        C172   1.380       .  A
C171        H174   1.082       .  S
C172        C173   1.380       .  A
C172        C648   1.437       .  S
C173        H175   1.082       .  S
Cu176       N179   2.071       .  S
Cu177       N187   2.071       .  S
Cu178       N180   2.073       .  S
Cu178       N186   2.073       .  S
N179        N180   1.322       .  A
N179        C183   1.344       .  A
N180        C181   1.346       .  A
C181        C182   1.385       .  A
C181        H184   1.082       .  S
C182        C183   1.380       .  A
C182        C666   1.473       .  S
C183        H185   1.082       .  S
N186        N187   1.324       .  A
N186        C190   1.344       .  A
N187        C188   1.345       .  A
C188        C189   1.378       .  A
C188        H191   1.082       .  S
C189        C190   1.378       .  A
C189        C657   1.434       .  S
C190        H192   1.082       .  S
N193        N194   1.322       .  A
N193        C197   1.344       .  A
N193       Cu201   2.066       .  S
N194        C195   1.346       .  A
N194       Cu200   2.071       .  S
C195        C196   1.380       .  A
C195        H198   1.082       .  S
C196        C197   1.378       .  A
C196        C656   1.436       .  S
C197        H199   1.082       .  S
Cu200       N203   2.072       .  S
Cu201       N211   2.066       .  S
Cu202       N204   2.084       .  S
Cu202       N210   2.084       .  S
N203        N204   1.323       .  A
N203        C207   1.344       .  A
N204        C205   1.347       .  A
C205        C206   1.384       .  A
C205        H208   1.082       .  S
C206        C207   1.384       .  A
C206        C637   1.478       .  S
C207        H209   1.082       .  S
N210        N211   1.323       .  A
N210        C214   1.347       .  A
N211        C212   1.344       .  A
C212        C213   1.378       .  A
C212        H215   1.082       .  S
C213        C214   1.382       .  A
C213        C641   1.438       .  S
C214        H216   1.082       .  S
N217        N218   1.324       .  A
N217        C221   1.345   1_545  A
N217       Cu225   2.072       .  S
N218        C219   1.346       .  A
N218       Cu224   2.082       .  S
C219        C220   1.381       .  A
C219        H222   1.082       .  S
C220        C221   1.379   1_545  A
C220        C645   1.438   1_545  S
C221        H223   1.082       .  S
Cu224       N227   2.082       .  S
Cu225       N235   2.072   1_545  S
Cu226       N228   2.069       .  S
Cu226       N234   2.069       .  S
N227        N228   1.323       .  A
N227        C231   1.347       .  A
N228        C229   1.343       .  A
C229        C230   1.379       .  A
C229        H232   1.082       .  S
C230        C231   1.386       .  A
C230        C634   1.474       .  S
C231        H233   1.082       .  S
N234        N235   1.322   1_545  A
N234        C238   1.346       .  A
N235        C236   1.345       .  A
C236        C237   1.380       .  A
C236        H239   1.082       .  S
C237        C238   1.380   1_565  A
C237        C644   1.437       .  S
C238        H240   1.082       .  S
N241        N242   1.323       .  A
N241        C245   1.345       .  A
N241       Cu249   2.077       .  S
N242        C243   1.345       .  A
N242       Cu248   2.072       .  S
C243        C244   1.385       .  A
C243        H246   1.082       .  S
C244        C245   1.382       .  A
C244        C629   1.476       .  S
C245        H247   1.082       .  S
Cu248       N251   2.071       .  S
Cu249       N259   2.076       .  S
Cu250       N252   2.068       .  S
Cu250       N258   2.068       .  S
N251        N252   1.322       .  A
N251        C255   1.346       .  A
N252        C253   1.343       .  A
C253        C254   1.382       .  A
C253        H256   1.082       .  S
C254        C255   1.383       .  A
C254        C278   1.469       .  S
C255        H257   1.082       .  S
N258        N259   1.322       .  A
N258        C262   1.345       .  A
N259        C260   1.345       .  A
C260        C261   1.382       .  A
C260        H263   1.082       .  S
C261        C262   1.384       .  A
C261        C650   1.474       .  S
C262        H264   1.082       .  S
N265        N266   1.321       .  A
N265        C269   1.344       .  A
N265       Cu273   2.066       .  S
N266        C267   1.344       .  A
N266       Cu272   2.067       .  S
C267        C268   1.385       .  A
C267        H270   1.082       .  S
C268        C269   1.380       .  A
C268        C685   1.472       .  S
C269        H271   1.082       .  S
Cu272       N275   2.068       .  S
Cu273       N283   2.066       .  S
Cu274       N276   2.073       .  S
Cu274       N282   2.073       .  S
N275        N276   1.322       .  A
N275        C279   1.343       .  A
N276        C277   1.346       .  A
C277        C278   1.383       .  A
C277        H280   1.082       .  S
C278        C279   1.381       .  A
C279        H281   1.082       .  S
N282        N283   1.322       .  A
N282        C286   1.346       .  A
N283        C284   1.342       .  A
C284        C285   1.382       .  A
C284        H287   1.082       .  S
C285        C286   1.382       .  A
C285        C625   1.472       .  S
C286        H288   1.082       .  S
N289        N290   1.324       .  A
N289        C293   1.346       .  A
N289       Cu297   2.077       .  S
N290        C291   1.345       .  A
N290       Cu296   2.076   1_655  S
C291        C292   1.379       .  A
C291        H294   1.082       .  S
C292        C293   1.380       .  A
C292        C617   1.438       .  S
C293        H295   1.082       .  S
Cu296       N299   2.075       .  S
Cu297       N307   2.077       .  S
Cu298       N300   2.065   1_655  S
Cu298       N306   2.065       .  S
N299        N300   1.322       .  A
N299        C303   1.346       .  A
N300        C301   1.343       .  A
C301        C302   1.382       .  A
C301        H304   1.082       .  S
C302        C303   1.382       .  A
C302        C614   1.472       .  S
C303        H305   1.082       .  S
N306        N307   1.323       .  A
N306        C310   1.344       .  A
N307        C308   1.346       .  A
C308        C309   1.381       .  A
C308        H311   1.082       .  S
C309        C310   1.378       .  A
C309        C621   1.436       .  S
C310        H312   1.082       .  S
N313        N314   1.323   1_545  A
N313        C317   1.345       .  A
N313       Cu321   2.068       .  S
N314        C315   1.345       .  A
N314       Cu320   2.071       .  S
C315        C316   1.379   1_565  A
C315        H318   1.083       .  S
C316        C317   1.379       .  A
C316        C609   1.435       .  S
C317        H319   1.082       .  S
Cu320       N323   2.072       .  S
Cu321       N331   2.069   1_545  S
Cu322       N324   2.079       .  S
Cu322       N330   2.080       .  S
N323        N324   1.322       .  A
N323        C327   1.344       .  A
N324        C325   1.347       .  A
C325        C326   1.386       .  A
C325        H328   1.082       .  S
C326        C327   1.381       .  A
C326        C605   1.475       .  S
C327        H329   1.082       .  S
N330        N331   1.324       .  A
N330        C334   1.346       .  A
N331        C332   1.345   1_565  A
C332        C333   1.378       .  A
C332        H335   1.082       .  S
C333        C334   1.380   1_545  A
C333        C624   1.436       .  S
C334        H336   1.082       .  S
N337        N338   1.322       .  A
N337        C341   1.345       .  A
N337       Cu345   2.070       .  S
N338        C339   1.345       .  A
N338       Cu344   2.074       .  S
C339        C340   1.380       .  A
C339        H342   1.082       .  S
C340        C341   1.380       .  A
C340        C620   1.438       .  S
C341        H343   1.082       .  S
Cu344       N347   2.074   1_545  S
Cu345       N355   2.070       .  S
Cu346       N348   2.078   1_545  S
Cu346       N354   2.078       .  S
N347        N348   1.323       .  A
N347        C351   1.345       .  A
N348        C349   1.346       .  A
C349        C350   1.384       .  A
C349        H352   1.082       .  S
C350        C351   1.380       .  A
C350        C662   1.472       .  S
C351        H353   1.082       .  S
N354        N355   1.324       .  A
N354        C358   1.346       .  A
N355        C356   1.344       .  A
C356        C357   1.378       .  A
C356        H359   1.082       .  S
C357        C358   1.380       .  A
C357        C601   1.436       .  S
C358        H360   1.082       .  S
N361        N362   1.322       .  A
N361        C365   1.345       .  A
N361       Cu369   2.067       .  S
N362        C363   1.344       .  A
N362       Cu368   2.068   1_655  S
C363        C364   1.379       .  A
C363        H366   1.082       .  S
C364        C365   1.379       .  A
C364        C612   1.435       .  S
C365        H367   1.082       .  S
Cu368       N371   2.068       .  S
Cu369       N379   2.067       .  S
Cu370       N372   2.079       .  S
Cu370       N378   2.079   1_455  S
N371        N372   1.323       .  A
N371        C375   1.343       .  A
N372        C373   1.347       .  A
C373        C374   1.386       .  A
C373        H376   1.082       .  S
C374        C375   1.379       .  A
C374        C630   1.474       .  S
C375        H377   1.082       .  S
N378        N379   1.324       .  A
N378        C382   1.346       .  A
N379        C380   1.344       .  A
C380        C381   1.377       .  A
C380        H383   1.082       .  S
C381        C382   1.380       .  A
C381        C604   1.436       .  S
C382        H384   1.082       .  S
N385        N386   1.322       .  A
N385        C389   1.344       .  A
N385       Cu393   2.069       .  S
N386        C387   1.346       .  A
N386       Cu392   2.078       .  S
C387        C388   1.385       .  A
C387        H390   1.081       .  S
C388        C389   1.380       .  A
C388        C674   1.474       .  S
C389        H391   1.082       .  S
Cu392       N395   2.078       .  S
Cu393       N403   2.070       .  S
Cu394       N396   2.082       .  S
Cu394       N402   2.082       .  S
N395        N396   1.323       .  A
N395        C399   1.346       .  A
N396        C397   1.346       .  A
C397        C398   1.385       .  A
C397        H400   1.082       .  S
C398        C399   1.384       .  A
C398        C422   1.476       .  S
C399        H401   1.082       .  S
N402        N403   1.322       .  A
N402        C406   1.347       .  A
N403        C404   1.344       .  A
C404        C405   1.380       .  A
C404        H407   1.082       .  S
C405        C406   1.386       .  A
C405        C638   1.475       .  S
C406        H408   1.082       .  S
N409        N410   1.322       .  A
N409        C413   1.345       .  A
N409       Cu417   2.070       .  S
N410        C411   1.347       .  A
N410       Cu416   2.083       .  S
C411        C412   1.384       .  A
C411        H414   1.082       .  S
C412        C413   1.384       .  A
C412        C606   1.477       .  S
C413        H415   1.081       .  S
Cu416       N419   2.084       .  S
Cu417       N427   2.071       .  S
Cu418       N420   2.079       .  S
Cu418       N426   2.078       .  S
N419        N420   1.323       .  A
N419        C423   1.346       .  A
N420        C421   1.346       .  A
C421        C422   1.384       .  A
C421        H424   1.082       .  S
C422        C423   1.385       .  A
C423        H425   1.082       .  S
N426        N427   1.322       .  A
N426        C430   1.346       .  A
N427        C428   1.344       .  A
C428        C429   1.384       .  A
C428        H431   1.082       .  S
C429        C430   1.383       .  A
C429        C597   1.476       .  S
C430        H432   1.082       .  S
N433        N434   1.323       .  A
N433        C437   1.345       .  A
N433       Cu441   2.076       .  S
N434        C435   1.346       .  A
N434       Cu440   2.076       .  S
C435        C436   1.380       .  A
C435        H438   1.082       .  S
C436        C437   1.379       .  A
C436        C589   1.439       .  S
C437        H439   1.082       .  S
Cu440       N443   2.076       .  S
Cu441       N451   2.076       .  S
Cu442       N444   2.076       .  S
Cu442       N450   2.076       .  S
N443        N444   1.323       .  A
N443        C447   1.345       .  A
N444        C445   1.346       .  A
C445        C446   1.382       .  A
C445        H448   1.082       .  S
C446        C447   1.384       .  A
C446        C585   1.475       .  S
C447        H449   1.082       .  S
N450        N451   1.323       .  A
N450        C454   1.346       .  A
N451        C452   1.346       .  A
C452        C453   1.380       .  A
C452        H455   1.082       .  S
C453        C454   1.380       .  A
C453        C593   1.439       .  S
C454        H456   1.082       .  S
N457        N458   1.322       .  A
N457        C461   1.345   1_655  A
N457       Cu465   2.071       .  S
N458        C459   1.344       .  A
N458       Cu464   2.067       .  S
C459        C460   1.378   1_655  A
C459        H462   1.082       .  S
C460        C461   1.379       .  A
C460        C584   1.434       .  S
C461        H463   1.082       .  S
Cu464       N467   2.067       .  S
Cu465       N475   2.071       .  S
Cu466       N468   2.083       .  S
Cu466       N474   2.083       .  S
N467        N468   1.323       .  A
N467        C471   1.343       .  A
N468        C469   1.347       .  A
C469        C470   1.386       .  A
C469        H472   1.082       .  S
C470        C471   1.379       .  A
C470        C598   1.474       .  S
C471        H473   1.082       .  S
N474        N475   1.324       .  A
N474        C478   1.347       .  A
N475        C476   1.345       .  A
C476        C477   1.379       .  A
C476        H479   1.082   1_655  S
C477        C478   1.381       .  A
C477        C596   1.439       .  S
C478        H480   1.082       .  S
N481        N482   1.324       .  A
N481        C485   1.346       .  A
N481       Cu489   2.075       .  S
N482        C483   1.346       .  A
N482       Cu488   2.079       .  S
C483        C484   1.380       .  A
C483        H486   1.082       .  S
C484        C485   1.380       .  A
C484        C592   1.439       .  S
C485        H487   1.082       .  S
Cu488       N491   2.078       .  S
Cu489       N499   2.074       .  S
Cu490       N492   2.070       .  S
Cu490       N498   2.070       .  S
N491        N492   1.322       .  A
N491        C495   1.346       .  A
N492        C493   1.345       .  A
C493        C494   1.384       .  A
C493        H496   1.082       .  S
C494        C495   1.382       .  A
C494        C670   1.475       .  S
C495        H497   1.082       .  S
N498        N499   1.323       .  A
N498        C502   1.344       .  A
N499        C500   1.346       .  A
C500        C501   1.380       .  A
C500        H503   1.082       .  S
C501        C502   1.378       .  A
C501        C580   1.435       .  S
C502        H504   1.082       .  S
N505        N506   1.323       .  A
N505        C509   1.345       .  A
N505       Cu513   2.072       .  S
N506        C507   1.344       .  A
N506       Cu512   2.068       .  S
C507        C508   1.378       .  A
C507        H510   1.082       .  S
C508        C509   1.379       .  A
C508        C581   1.434       .  S
C509        H511   1.082       .  S
Cu512       N515   2.068       .  S
Cu513       N523   2.072       .  S
Cu514       N516   2.069       .  S
Cu514       N522   2.069       .  S
N515        N516   1.322       .  A
N515        C519   1.344       .  A
N516        C517   1.344       .  A
C517        C518   1.380       .  A
C517        H520   1.082       .  S
C518        C519   1.383       .  A
C518        C626   1.470       .  S
C519        H521   1.082       .  S
N522        N523   1.323       .  A
N522        C526   1.344       .  A
N523        C524   1.345       .  A
C524        C525   1.379       .  A
C524        H527   1.082       .  S
C525        C526   1.378       .  A
C525        C577   1.435       .  S
C526        H528   1.082       .  S
N529        N530   1.323       .  A
N529        C533   1.345       .  A
N529       Cu537   2.074       .  S
N530        C531   1.347       .  A
N530       Cu536   2.083       .  S
C531        C532   1.385       .  A
C531        H534   1.082       .  S
C532        C533   1.380       .  A
C532        C586   1.475       .  S
C533        H535   1.082       .  S
Cu536       N539   2.083       .  S
Cu537       N547   2.074       .  S
Cu538       N540   2.068       .  S
Cu538       N546   2.068       .  S
N539        N540   1.322       .  A
N539        C543   1.347       .  A
N540        C541   1.344       .  A
C541        C542   1.381       .  A
C541        H544   1.082       .  S
C542        C543   1.386       .  A
C542        C566   1.473       .  S
C543        H545   1.082       .  S
N546        N547   1.322       .  A
N546        C550   1.344       .  A
N547        C548   1.345       .  A
C548        C549   1.382       .  A
C548        H551   1.082       .  S
C549        C550   1.382       .  A
C549        C613   1.471       .  S
C550        H552   1.082       .  S
N553        N554   1.322       .  A
N553        C557   1.345       .  A
N553       Cu561   2.068       .  S
N554        C555   1.346       .  A
N554       Cu560   2.080       .  S
C555        C556   1.386       .  A
C555        H558   1.082       .  S
C556        C557   1.381       .  A
C556        C633   1.476       .  S
C557        H559   1.082       .  S
Cu560       N563   2.080       .  S
Cu561       N571   2.068       .  S
Cu562       N564   2.075       .  S
Cu562       N570   2.074       .  S
N563        N564   1.323       .  A
N563        C567   1.345       .  A
N564        C565   1.346       .  A
C565        C566   1.383       .  A
C565        H568   1.082       .  S
C566        C567   1.384       .  A
C567        H569   1.082       .  S
N570        N571   1.322       .  A
N570        C574   1.346       .  A
N571        C572   1.344       .  A
C572        C573   1.379       .  A
C572        H575   1.082       .  S
C573        C574   1.384       .  A
C573        C678   1.470       .  S
C574        H576   1.082       .  S
C577        C578   1.205   1_455  T
C578        C579   1.410   1_556  S
C579        C580   1.205       .  T
C581        C582   1.204       .  T
C582        C583   1.409       .  S
C583        C584   1.204       .  T
C585        C586   1.342       .  D
C585        H587   1.086       .  S
C586        H588   1.086       .  S
C589        C590   1.207   1_455  T
C590        C591   1.414       .  S
C591        C592   1.207       .  T
C593        C594   1.207       .  T
C594        C595   1.414       .  S
C595        C596   1.207   1_455  T
C597        C598   1.342       .  D
C597        H599   1.086       .  S
C598        H600   1.086       .  S
C601        C602   1.205       .  T
C602        C603   1.411   1_554  S
C603        C604   1.205       .  T
C605        C606   1.343       .  D
C605        H607   1.086       .  S
C606        H608   1.086       .  S
C609        C610   1.204       .  T
C610        C611   1.410       .  S
C611        C612   1.204       .  T
C613        C614   1.342       .  D
C613        H615   1.086       .  S
C614        H616   1.086       .  S
C617        C618   1.206       .  T
C618        C619   1.413       .  S
C619        C620   1.206       .  T
C621        C622   1.205       .  T
C622        C623   1.411       .  S
C623        C624   1.205       .  T
C625        C626   1.342       .  D
C625        H627   1.086       .  S
C626        H628   1.086       .  S
C629        C630   1.342       .  D
C629        H631   1.086       .  S
C630        H632   1.086       .  S
C633        C634   1.341       .  D
C633        H635   1.086       .  S
C634        H636   1.086       .  S
C637        C638   1.343       .  D
C637        H639   1.086       .  S
C638        H640   1.086       .  S
C641        C642   1.206       .  T
C642        C643   1.412       .  S
C643        C644   1.206       .  T
C645        C646   1.206       .  T
C646        C647   1.413       .  S
C647        C648   1.206       .  T
C649        C650   1.343       .  D
C649        H651   1.086       .  S
C650        H652   1.086       .  S
C653        C654   1.205       .  T
C654        C655   1.411       .  S
C655        C656   1.205       .  T
C657        C658   1.204       .  T
C658        C659   1.409   1_554  S
C659        C660   1.204       .  T
C661        C662   1.342       .  D
C661        H663   1.086       .  S
C662        H664   1.086       .  S
C665        C666   1.340       .  D
C665        H667   1.087       .  S
C666        H668   1.087       .  S
C669        C670   1.341       .  D
C669        H671   1.087       .  S
C670        H672   1.087       .  S
C673        C674   1.342       .  D
C673        H675   1.086       .  S
C674        H676   1.086       .  S
C677        C678   1.339       .  D
C677        H679   1.086       .  S
C678        H680   1.087       .  S
C681        C682   1.204       .  T
C682        C683   1.409       .  S
C683        C684   1.204       .  T
C685        C686   1.342       .  D
C685        H687   1.086       .  S
C686        H688   1.086       .  S
C689        C690   1.204       .  T
C690        C691   1.409       .  S
C691        C692   1.204       .  T
C693        C694   1.341       .  D
C693        H695   1.086       .  S
C694        H696   1.086       .  S
C697        C698   1.205       .  T
C698        C699   1.411       .  S
C699        C700   1.205       .  T
C701        C702   1.206       .  T
C702        C703   1.413   1_554  S
C703        C704   1.206       .  T
