geometry optimzed in LAMMPS
_audit_creation_date              2020-11-30 
_audit_creation_method            'lammps2cif' 
_symmetry_space_group_name_H-M    'P1' 
_symmetry_Int_Tables_number       1 
_symmetry_cell_setting            triclinic 
loop_ 
_symmetry_equiv_pos_as_xyz 
  x,y,z 
_cell_length_a                    40.80780844142581 
_cell_length_b                    81.86127362760963 
_cell_length_c                    47.86462540358092 
_cell_angle_alpha                 90.43986134249839 
_cell_angle_beta                  90.29246568115175 
_cell_angle_gamma                 90.02681126620558 
loop_ 
_atom_site_label 
_atom_site_type_symbol 
_atom_site_fract_x 
_atom_site_fract_y 
_atom_site_fract_z 
_atom_site_charge 
Zr1        Zr  0.38039435  0.89249271  0.05861357     2.17510
O2          O  0.33348320  0.89886831  0.08815257    -0.51100
O3          O  0.36213300  0.91389911  0.02706606    -0.74300
O4          O  0.38853250  0.91423248  0.09274827    -0.81090
O5          O  0.34816740  0.84874596  0.05238800    -0.82830
O6          O  0.43620674  0.92374028  0.07724654    -0.78460
O7          O  0.33527085  0.87483192  0.04504804    -0.90090
O8          O  0.39807117  0.91411843  0.99101298    -0.76050
O9          O  0.42789203  0.90506068  0.03984190    -0.85540
O10         O  0.39011173  0.87803696  0.01552930    -0.85230
O11         O  0.42233823  0.88827186  0.09373548    -0.71990
O12         O  0.38983762  0.86420349  0.06899404    -0.84130
Zr13       Zr  0.48786043  0.85866793  0.04447468     2.26420
Zr14       Zr  0.47045862  0.90030058  0.07355449     2.06270
Zr15       Zr  0.40028782  0.84941342  0.02632587     2.10050
Zr16       Zr  0.43720886  0.89109344  0.99732710     1.78760
O17         O  0.37370914  0.82276938  0.02409685    -0.92930
O18         O  0.47238818  0.91394105  0.98495018    -0.40740
O19         O  0.44768019  0.86263103  0.00821027    -0.77370
O20         O  0.48142651  0.88666236  0.03019481    -0.96060
O21         O  0.47711071  0.87265005  0.08669852    -0.89360
O22         O  0.44030919  0.84555452  0.06190514    -0.92200
C23         C  0.37299018  0.91988380  0.00422111     1.01550
C24         C  0.32883311  0.86098289  0.05573216     1.14480
C25         C  0.41335842  0.92362312  0.09502398     1.05260
O26         O  0.50240795  0.92534837  0.07075521    -0.94360
O27         O  0.02907296  0.89697775  0.06904667    -0.90100
O28         O  0.03086501  0.86959710  0.07238955    -0.83250
C29         C  0.04442971  0.88357479  0.07268694     1.11900
O30         O  0.37753614  0.86051832  0.12988167    -0.96330
Zr31       Zr  0.42916028  0.86021652  0.10436494     1.88940
O32         O  0.00086765  0.83861301  0.08056943    -0.72980
O33         O  0.47990294  0.90346781  0.12359137    -0.52240
O34         O  0.43632693  0.87164185  0.15116626    -0.96920
O35         O  0.41677289  0.83226206  0.11841812    -0.54140
O36         O  0.48206286  0.85132676  0.11908051    -0.73500
C37         C  0.49739222  0.83978826  0.10716078     0.98840
O38         O  0.03724476  0.85696815  0.01608792    -0.62320
O39         O  0.37520392  0.85095352  0.98012306    -0.57120
O40         O  0.49180873  0.83362819  0.01924597    -0.93800
O41         O  0.43867457  0.82677798  0.01043882    -0.92230
O42         O  0.40726626  0.88368297  0.95496068    -0.92590
O43         O  0.47339413  0.88546235  0.95814905    -0.91370
C44         C  0.47010513  0.82391862  0.00956707     1.17690
H45         H  0.37180880  0.87936404  0.00287071     0.33630
H46         H  0.00158532  0.89058908  0.02215574     0.44480
H47         H  0.44357790  0.83402784  0.06496888     0.38010
H48         H  0.41764648  0.89315330  0.11169300     0.34490
H49         H  0.46043206  0.91964207  0.96984573     0.26280
H50         H  0.00090625  0.89776380  0.12706642     0.32220
H51         H  0.44193057  0.86215674  0.16298202     0.38130
H52         H  0.40627247  0.89388692  0.94401312     0.32580
H53         H  0.38098541  0.84048037  0.97091439     0.31460
H54         H  0.35367604  0.82439979  0.01270658     0.33140
H55         H  0.42202469  0.83201302  0.13863100     0.32110
H56         H  0.99202439  0.87943137  0.96646626     0.36110
H57         H  0.02917911  0.85708046  0.99654474     0.28840
H58         H  0.32971017  0.91079914  0.08714863     0.33080
H59         H  0.38142896  0.85422442  0.14716093     0.35930
H60         H  0.35135062  0.85016919  0.98355400     0.28540
H61         H  0.04829290  0.86765833  0.01848281     0.41410
H62         H  0.50086489  0.92855410  0.05088805     0.31460
H63         H  0.47113986  0.92148536  0.00117944     0.39080
H64         H  0.43370198  0.82523526  0.10979980     0.30930
H65         H  0.48513513  0.91519179  0.12621890     0.30990
H66         H  0.34061969  0.89679024  0.10761533     0.31260
Zr67       Zr  0.24649395  0.89073087  0.07750549     2.17510
O68         O  0.28961333  0.89726123  0.04417436    -0.51100
O69         O  0.26469645  0.91149907  0.11092435    -0.74300
O70         O  0.23743873  0.91453802  0.04942498    -0.81090
O71         O  0.28170057  0.84798640  0.07632088    -0.82830
O72         O  0.19146490  0.92101250  0.07093809    -0.78460
O73         O  0.29378348  0.87387545  0.08698316    -0.90090
O74         O  0.22960095  0.91049970  0.14760129    -0.76050
O75         O  0.19968259  0.90185357  0.10026405    -0.85540
O76         O  0.24020024  0.87486677  0.11902685    -0.85230
O77         O  0.20191114  0.88769787  0.04410357    -0.71990
O78         O  0.23783176  0.86293391  0.06260505    -0.84130
Zr79       Zr  0.14048859  0.85561039  0.09404274     2.26420
Zr80       Zr  0.15495818  0.89837810  0.06822681     2.06270
Zr81       Zr  0.23090093  0.84684744  0.10399090     2.10050
Zr82       Zr  0.19366443  0.88647416  0.14133098     1.78760
O83         O  0.25626973  0.82010771  0.09826628    -0.92930
O84         O  0.15733815  0.90765494  0.15927418    -0.40740
O85         O  0.18447075  0.85844399  0.12721361    -0.77370
O86         O  0.14735516  0.88322404  0.11037803    -0.96060
O87         O  0.14711054  0.87110947  0.05271956    -0.89360
O88         O  0.18679436  0.84370792  0.07136803    -0.92200
C89         C  0.25359980  0.91698585  0.13422589     1.01550
C90         C  0.30044143  0.86052650  0.07437322     1.14480
C91         C  0.21103319  0.92267127  0.05077595     1.05260
O92         O  0.12387321  0.92362286  0.07286829    -0.94360
O93         O  0.09664689  0.89600832  0.07444886    -0.90100
O94         O  0.09063072  0.86884583  0.08190033    -0.83250
C95         C  0.07940538  0.88309353  0.07692734     1.11900
O96         O  0.22993071  0.87235719  0.99607245    -0.96330
Zr97       Zr  0.19410593  0.85993704  0.03053316     1.88940
O98         O  0.12278545  0.83808777  0.05527322    -0.72980
O99         O  0.14457995  0.90308227  0.01873371    -0.52240
O100        O  0.18448587  0.85604462  0.98061164    -0.96920
O101        O  0.21738044  0.83280211  0.02337959    -0.54140
O102        O  0.13691267  0.85547442  0.02217510    -0.73500
C103        C  0.12508739  0.84188137  0.02948881     0.98840
O104        O  0.09753491  0.84994084  0.12807509    -0.62320
O105        O  0.26134972  0.84646057  0.14789280    -0.57120
O106        O  0.14279114  0.82931180  0.11512601    -0.93800
O107        O  0.19692569  0.82356397  0.12120368    -0.92230
O108        O  0.22818571  0.87917303  0.18093515    -0.92590
O109        O  0.16126232  0.87779408  0.18111749    -0.91370
C110        C  0.16603566  0.82007991  0.12325776     1.17690
H111        H  0.25927661  0.87594045  0.13093191     0.33630
H112        H  0.12784749  0.88682126  0.11996803     0.44480
H113        H  0.18309540  0.83231445  0.06697999     0.38010
H114        H  0.20555850  0.89370419  0.02713566     0.34490
H115        H  0.16985188  0.91296557  0.17462014     0.26280
H116        H  0.12697804  0.89525045  0.01370308     0.32220
H117        H  0.17937000  0.84429852  0.97817857     0.38130
H118        H  0.22757642  0.88886875  0.19341919     0.32580
H119        H  0.25631761  0.83567991  0.15607448     0.31460
H120        H  0.27586466  0.82034470  0.11054168     0.33140
H121        H  0.23250264  0.83406588  0.00742972     0.32110
H122        H  0.14140289  0.87279266  0.17269636     0.36110
H123        H  0.10925981  0.84791693  0.14588127     0.28840
H124        H  0.29510090  0.90899086  0.04626375     0.33080
H125        H  0.25229353  0.86911240  0.00192883     0.35930
H126        H  0.28462297  0.84569711  0.14228000     0.28540
H127        H  0.08626775  0.86047168  0.13147895     0.41410
H128        H  0.12612695  0.92669244  0.09283658     0.31460
H129        H  0.15658464  0.91593573  0.14431066     0.39080
H130        H  0.19910180  0.82609237  0.01588894     0.30930
H131        H  0.13384916  0.91391464  0.01801738     0.30990
H132        H  0.27952985  0.89616391  0.02538830     0.31260
Zr133      Zr  0.16309686  0.51301302  0.23693053     2.17510
O134        O  0.16151715  0.52626307  0.28281025    -0.51100
O135        O  0.21305223  0.53015007  0.24079271    -0.74300
O136        O  0.17842864  0.49479811  0.27428088    -0.81090
O137        O  0.12171639  0.54838794  0.20587005    -0.82830
O138        O  0.19038957  0.46977264  0.25627329    -0.78460
O139        O  0.12024913  0.53246781  0.24321369    -0.90090
O140        O  0.24071842  0.52925929  0.19981329    -0.76050
O141        O  0.20348796  0.49834750  0.21162862    -0.85540
O142        O  0.16818853  0.52710100  0.19362463    -0.85230
O143        O  0.13924464  0.48602670  0.23222900    -0.71990
O144        O  0.10904463  0.51254247  0.21563419    -0.84130
Zr145      Zr  0.13174998  0.48423370  0.14149865     2.26420
Zr146      Zr  0.18024105  0.47164878  0.20609911     2.06270
Zr147      Zr  0.11461141  0.52630597  0.17186422     2.10050
Zr148      Zr  0.20763778  0.51226637  0.16814896     1.78760
O149        O  0.05715615  0.53237787  0.18060199    -0.92930
O150        O  0.26230287  0.50029365  0.16793610    -0.40740
O151        O  0.15457010  0.51131021  0.14571696    -0.77370
O152        O  0.18646223  0.48522783  0.16212758    -0.96060
O153        O  0.12679388  0.47048155  0.18469442    -0.89360
O154        O  0.09169999  0.49940024  0.16624726    -0.92200
C155        C  0.23744472  0.53413655  0.22520566     1.01550
C156        C  0.12349883  0.54639810  0.23229317     1.14480
C157        C  0.18717325  0.47987690  0.27664274     1.05260
O158        O  0.23926153  0.46849465  0.20128466    -0.94360
O159        O  0.17612583  0.44942170  0.17269493    -0.90100
O160        O  0.16755894  0.46218208  0.13146717    -0.83250
C161        C  0.17408931  0.44972642  0.14606535     1.11900
O162        O  0.06196712  0.49415204  0.25351121    -0.96330
Zr163      Zr  0.08664271  0.48546915  0.20951694     1.88940
O164        O  0.08732573  0.46316650  0.14031421    -0.72980
O165        O  0.18074214  0.44360032  0.22301524    -0.52240
O166        O  0.08166214  0.46205995  0.24040201    -0.96920
O167        O  0.03012537  0.49426180  0.20200370    -0.54140
O168        O  0.06108542  0.46336892  0.18195422    -0.73500
C169        C  0.06556084  0.45748892  0.15727566     0.98840
O170        O  0.13462780  0.47796754  0.09160894    -0.62320
O171        O  0.12013853  0.55201250  0.14700936    -0.57120
O172        O  0.10848778  0.50121719  0.10508296    -0.93800
O173        O  0.09838020  0.52662279  0.12256501    -0.92230
O174        O  0.21234544  0.53832756  0.14430086    -0.92590
O175        O  0.22964018  0.50865974  0.12130867    -0.91370
C176        C  0.09838534  0.51596612  0.10270616     1.17690
H177        H  0.17602162  0.53814844  0.19621564     0.33630
H178        H  0.20339078  0.47987581  0.15142067     0.44480
H179        H  0.07134654  0.49965442  0.15589123     0.38010
H180        H  0.13460306  0.48101912  0.24992480     0.34490
H181        H  0.27701042  0.50933334  0.16245783     0.26280
H182        H  0.20206495  0.44217934  0.23266576     0.32220
H183        H  0.05882855  0.45819769  0.23790591     0.38130
H184        H  0.23599830  0.54100603  0.14511063     0.32580
H185        H  0.10319816  0.55926915  0.15510718     0.31460
H186        H  0.04589708  0.52979272  0.16273441     0.33140
H187        H  0.01660009  0.48589502  0.21133942     0.32110
H188        H  0.21196072  0.50303108  0.11075251     0.36110
H189        H  0.15813967  0.47857537  0.08667926     0.28840
H190        H  0.18345430  0.52461467  0.29126062     0.33080
H191        H  0.04384834  0.48641057  0.25708138     0.35930
H192        H  0.14124967  0.55665628  0.15357277     0.28540
H193        H  0.12874980  0.46627013  0.08966086     0.41410
H194        H  0.24801770  0.47001821  0.22045995     0.31460
H195        H  0.26757826  0.49842285  0.18786879     0.39080
H196        H  0.02564261  0.49247638  0.18187386     0.30930
H197        H  0.16406857  0.44318330  0.23795565     0.30990
H198        H  0.14644553  0.51960323  0.29421154     0.31260
Zr199      Zr  0.98069126  0.51643444  0.89558868     2.17510
O200        O  0.98191181  0.52922712  0.84966697    -0.51100
O201        O  0.43111366  0.53383273  0.89220040    -0.74300
O202        O  0.46382811  0.49792101  0.85862661    -0.81090
O203        O  0.02580295  0.55139833  0.92559201    -0.82830
O204        O  0.44926900  0.47336728  0.87664658    -0.78460
O205        O  0.02434789  0.53526786  0.88791860    -0.90090
O206        O  0.40369917  0.53324491  0.93328761    -0.76050
O207        O  0.43992783  0.50264650  0.92142779    -0.85540
O208        O  0.47759887  0.53099085  0.93891046    -0.85230
O209        O  0.00266348  0.48913863  0.89997124    -0.71990
O210        O  0.03510368  0.51520931  0.91611766    -0.84130
Zr211      Zr  0.01172147  0.48854431  0.99053880     2.26420
Zr212      Zr  0.46131778  0.47557064  0.92653055     2.06270
Zr213      Zr  0.03165888  0.52965057  0.95983056     2.10050
Zr214      Zr  0.43753752  0.51701116  0.96493602     1.78760
O215        O  0.08850360  0.53615502  0.94941325    -0.92930
O216        O  0.38321278  0.50481038  0.96778480    -0.40740
O217        O  0.49093321  0.51586191  0.98658950    -0.77370
O218        O  0.45741812  0.48973093  0.97056518    -0.96060
O219        O  0.01452776  0.47413957  0.94755104    -0.89360
O220        O  0.05247341  0.50245988  0.96486698    -0.92200
C221        C  0.40678388  0.53790106  0.90789930     1.01550
C222        C  0.02322007  0.54931044  0.89915244     1.14480
C223        C  0.45361689  0.48319881  0.85626630     1.05260
O224        O  0.40233918  0.47101270  0.92633798    -0.94360
O225        O  0.45436633  0.45512521  0.96230696    -0.90100
O226        O  0.48484473  0.46356856  0.99979477    -0.83250
C227        C  0.46566750  0.45370510  0.98717950     1.11900
O228        O  0.08127462  0.49602288  0.87842392    -0.96330
Zr229      Zr  0.05548221  0.48777338  0.92199104     1.88940
O230        O  0.05351185  0.46680057  0.99291871    -0.72980
O231        O  0.47302434  0.44795723  0.91005381    -0.52240
O232        O  0.05844369  0.46440679  0.89021239    -0.96920
O233        O  0.11317700  0.49430912  0.93008100    -0.54140
O234        O  0.07644624  0.46482866  0.94988232    -0.73500
C235        C  0.07254897  0.45978178  0.97506551     0.98840
O236        O  0.49262229  0.48759208  0.03881180    -0.62320
O237        O  0.02492803  0.55504543  0.98598501    -0.57120
O238        O  0.04607359  0.50276348  0.02393288    -0.93800
O239        O  0.05384061  0.52859204  0.00782817    -0.92230
O240        O  0.43374651  0.54388639  0.98685231    -0.92590
O241        O  0.41723068  0.51528983  0.01256794    -0.91370
C242        C  0.05689055  0.51738461  0.02645819     1.17690
H243        H  0.47046598  0.54212580  0.93627128     0.33630
H244        H  0.44194135  0.48428068  0.98251038     0.44480
H245        H  0.07328743  0.50240909  0.97452900     0.38010
H246        H  0.00667118  0.48386078  0.88225502     0.34490
H247        H  0.36834452  0.51409537  0.97171462     0.26280
H248        H  0.45254376  0.44418200  0.90088462     0.32220
H249        H  0.08047512  0.45968685  0.89338546     0.38130
H250        H  0.41005769  0.54650040  0.98669854     0.32580
H251        H  0.04203581  0.56242153  0.97865197     0.31460
H252        H  0.09604581  0.54279259  0.96558725     0.33140
H253        H  0.12540355  0.48580356  0.91965468     0.32110
H254        H  0.43186394  0.50731186  0.02177735     0.36110
H255        H  0.48937026  0.49914915  0.04440819     0.28840
H256        H  0.95969306  0.52776015  0.84162696     0.33080
H257        H  0.09823906  0.48771360  0.87433448     0.35930
H258        H  0.00401407  0.55966661  0.97906969     0.28540
H259        H  0.47006066  0.48316544  0.03786794     0.41410
H260        H  0.39398373  0.47743565  0.91037107     0.31460
H261        H  0.37782495  0.50150824  0.94835829     0.39080
H262        H  0.11748879  0.49170642  0.94991846     0.30930
H263        H  0.48881350  0.44934237  0.89460900     0.30990
H264        H  0.99632342  0.52225481  0.83802187     0.31260
Zr265      Zr  0.41817799  0.51655496  0.73620668     2.17510
O266        O  0.41882145  0.53012044  0.78183896    -0.51100
O267        O  0.46829176  0.53338434  0.73889648    -0.74300
O268        O  0.43538386  0.49842169  0.77323145    -0.81090
O269        O  0.37217105  0.55129752  0.70758959    -0.82830
O270        O  0.44659635  0.47340342  0.75488070    -0.78460
O271        O  0.37466045  0.53533301  0.74506790    -0.90090
O272        O  0.49486805  0.53268077  0.69738022    -0.76050
O273        O  0.45856876  0.50289513  0.70939902    -0.85540
O274        O  0.42037322  0.53093436  0.69294566    -0.85230
O275        O  0.39624917  0.48921931  0.73224845    -0.71990
O276        O  0.36346143  0.51542605  0.71634713    -0.84130
Zr277      Zr  0.38553922  0.48790712  0.64151563     2.26420
Zr278      Zr  0.43736197  0.47579451  0.70459895     2.06270
Zr279      Zr  0.36607384  0.52947834  0.67256808     2.10050
Zr280      Zr  0.45975747  0.51697503  0.66582417     1.78760
O281        O  0.30972870  0.53703160  0.68295701    -0.92930
O282        O  0.01486718  0.50600718  0.66016708    -0.40740
O283        O  0.40599631  0.51540890  0.64492777    -0.77370
O284        O  0.44089855  0.48951786  0.66034372    -0.96060
O285        O  0.38315975  0.47414712  0.68488310    -0.89360
O286        O  0.34544851  0.50212951  0.66789080    -0.92200
C287        C  0.49240895  0.53720517  0.72297181     1.01550
C288        C  0.37516571  0.54933945  0.73403481     1.14480
C289        C  0.44391961  0.48344843  0.77540511     1.05260
O290        O  0.49478494  0.47436761  0.69118359    -0.94360
O291        O  0.41759388  0.45307784  0.67682773    -0.90100
O292        O  0.42038679  0.46511447  0.63515442    -0.83250
C293        C  0.41648525  0.45269717  0.65022468     1.11900
O294        O  0.31933196  0.49660696  0.75545243    -0.96330
Zr295      Zr  0.34290878  0.48799957  0.71097941     1.88940
O296        O  0.34340642  0.46598390  0.64074156    -0.72980
O297        O  0.45722161  0.44879780  0.71789742    -0.52240
O298        O  0.34016851  0.46463404  0.74216769    -0.96920
O299        O  0.28531625  0.49513116  0.70438567    -0.54140
O300        O  0.31988989  0.46511580  0.68359681    -0.73500
C301        C  0.32368832  0.45954368  0.65860452     0.98840
O302        O  0.39502497  0.48329417  0.59182777    -0.62320
O303        O  0.37520297  0.55432038  0.64604768    -0.57120
O304        O  0.35365731  0.50253068  0.60735006    -0.93800
O305        O  0.34137148  0.52763465  0.62533777    -0.92230
O306        O  0.46234822  0.54407481  0.64530262    -0.92590
O307        O  0.47719067  0.51512755  0.61730821    -0.91370
C308        C  0.34018968  0.51661375  0.60590056     1.17690
H309        H  0.42751238  0.54208736  0.69570320     0.33630
H310        H  0.45728648  0.48442062  0.64867787     0.44480
H311        H  0.32451455  0.50194633  0.65841700     0.38010
H312        H  0.39186069  0.48412495  0.74990334     0.34490
H313        H  0.02821296  0.51540374  0.65397630     0.26280
H314        H  0.47750911  0.45063970  0.72891854     0.32220
H315        H  0.31757265  0.46037899  0.74000671     0.38130
H316        H  0.48604492  0.54659557  0.64428369     0.32580
H317        H  0.35826457  0.56203874  0.65277919     0.31460
H318        H  0.30443607  0.54570877  0.66936567     0.33140
H319        H  0.27306396  0.48674153  0.71485348     0.32110
H320        H  0.46079039  0.50790731  0.60819299     0.36110
H321        H  0.41913994  0.48349130  0.58965685     0.28840
H322        H  0.44118518  0.52855093  0.78947303     0.33080
H323        H  0.30197199  0.48856765  0.75972557     0.35930
H324        H  0.39609284  0.55878164  0.65344879     0.28540
H325        H  0.38866703  0.47178173  0.58828579     0.41410
H326        H  0.00705782  0.47695651  0.70856459     0.31460
H327        H  0.02265944  0.50388439  0.67941895     0.39080
H328        H  0.28029272  0.49259604  0.68457276     0.30930
H329        H  0.44109041  0.44461002  0.73147689     0.30990
H330        H  0.40445931  0.52348866  0.79392823     0.31260
Zr331      Zr  0.22536497  0.51249305  0.39797229     2.17510
O332        O  0.22721078  0.52568384  0.35238195    -0.51100
O333        O  0.17578003  0.52957811  0.39474100    -0.74300
O334        O  0.20770321  0.49470676  0.36026892    -0.81090
O335        O  0.26990833  0.54707241  0.42878560    -0.82830
O336        O  0.19549038  0.46975531  0.37766944    -0.78460
O337        O  0.26770695  0.53194760  0.38978003    -0.90090
O338        O  0.14844367  0.52936233  0.43590257    -0.76050
O339        O  0.18382128  0.49907262  0.42351348    -0.85540
O340        O  0.22190502  0.52681545  0.44153471    -0.85230
O341        O  0.24668742  0.48505723  0.40160324    -0.71990
O342        O  0.27958477  0.51091058  0.41862299    -0.84130
Zr343      Zr  0.25537664  0.48326830  0.49285328     2.26420
Zr344      Zr  0.20440223  0.47193076  0.42801445     2.06270
Zr345      Zr  0.27557782  0.52493265  0.46260139     2.10050
Zr346      Zr  0.18179017  0.51294693  0.46757657     1.78760
O347        O  0.33303763  0.53071400  0.45347296    -0.92930
O348        O  0.12600256  0.50247022  0.47071999    -0.40740
O349        O  0.23506469  0.51084558  0.48924539    -0.77370
O350        O  0.20033665  0.48545301  0.47284140    -0.96060
O351        O  0.25814788  0.46971901  0.44890671    -0.89360
O352        O  0.29609239  0.49754332  0.46758582    -0.92200
C353        C  0.15159094  0.53376504  0.41039141     1.01550
C354        C  0.26755889  0.54567776  0.40216386     1.14480
C355        C  0.19852330  0.47985148  0.35754958     1.05260
O356        O  0.14679624  0.47097022  0.44099071    -0.94360
O357        O  0.22216871  0.44872243  0.45430999    -0.90100
O358        O  0.21840501  0.46088235  0.49608234    -0.83250
C359        C  0.22227358  0.44837177  0.48084186     1.11900
O360        O  0.32354213  0.49074659  0.37940004    -0.96330
Zr361      Zr  0.29948325  0.48335444  0.42410825     1.88940
O362        O  0.29922439  0.46180972  0.49418790    -0.72980
O363        O  0.18361563  0.44520615  0.41333910    -0.52240
O364        O  0.30137581  0.45919882  0.39406026    -0.96920
O365        O  0.35675073  0.49131711  0.43009650    -0.54140
O366        O  0.32415601  0.46113201  0.45192829    -0.73500
C367        C  0.32019932  0.45559847  0.47683194     0.98840
O368        O  0.24673389  0.47651219  0.54178834    -0.62320
O369        O  0.27028555  0.55053087  0.48845797    -0.57120
O370        O  0.28143308  0.49973612  0.52929840    -0.93800
O371        O  0.29419276  0.52462911  0.51136652    -0.92230
O372        O  0.18020579  0.53971717  0.49007363    -0.92590
O373        O  0.16175173  0.51075851  0.51525710    -0.91370
C374        C  0.29361301  0.51417465  0.53129223     1.17690
H375        H  0.21493757  0.53799189  0.43908939     0.33630
H376        H  0.18321546  0.48061592  0.48394283     0.44480
H377        H  0.31666553  0.49742177  0.47762846     0.38010
H378        H  0.25095665  0.47997127  0.38377345     0.34490
H379        H  0.11277038  0.51190250  0.47714922     0.26280
H380        H  0.16339300  0.44728274  0.40241056     0.32220
H381        H  0.32400323  0.45498197  0.39600426     0.38130
H382        H  0.15674859  0.54280737  0.48992715     0.32580
H383        H  0.28758100  0.55770433  0.48086701     0.31460
H384        H  0.34491662  0.52628658  0.46983489     0.33140
H385        H  0.36939465  0.48238273  0.42119839     0.32110
H386        H  0.17841088  0.50405909  0.52497770     0.36110
H387        H  0.22271689  0.47710734  0.54447631     0.28840
H388        H  0.20489495  0.52466621  0.34433362     0.33080
H389        H  0.34072338  0.48250223  0.37560190     0.35930
H390        H  0.24944796  0.55534220  0.48175920     0.28540
H391        H  0.25210560  0.46475168  0.54327852     0.41410
H392        H  0.13476454  0.47344309  0.42350956     0.31460
H393        H  0.11896079  0.50071503  0.45110285     0.39080
H394        H  0.36152474  0.49014610  0.45026973     0.30930
H395        H  0.19960159  0.44096550  0.39957829     0.30990
H396        H  0.24116459  0.51863072  0.34047191     0.31260
Zr397      Zr  0.26103573  0.38838834  0.58177712     2.17510
O398        O  0.30929104  0.39620047  0.55511305    -0.51100
O399        O  0.28122802  0.41074027  0.61171419    -0.74300
O400        O  0.25378683  0.40799032  0.54580368    -0.81090
O401        O  0.29176583  0.34440149  0.58032707    -0.82830
O402        O  0.20317018  0.41871021  0.55285817    -0.78460
O403        O  0.30699054  0.37004404  0.58842831    -0.90090
O404        O  0.24953874  0.41141094  0.65044296    -0.76050
O405        O  0.21707606  0.40188702  0.60464938    -0.85540
O406        O  0.25601770  0.37402189  0.62471870    -0.85230
O407        O  0.21434626  0.38485466  0.55063652    -0.71990
O408        O  0.24984227  0.36045011  0.56938001    -0.84130
Zr409      Zr  0.15283623  0.35638334  0.60436750     2.26420
Zr410      Zr  0.17012167  0.39808549  0.57497085     2.06270
Zr411      Zr  0.24359651  0.34578769  0.61215041     2.10050
Zr412      Zr  0.21169030  0.38763995  0.64717719     1.78760
O413        O  0.27021143  0.31914027  0.61249380    -0.92930
O414        O  0.17834498  0.40989826  0.66554826    -0.40740
O415        O  0.19914955  0.35939050  0.63548647    -0.77370
O416        O  0.16319851  0.38426451  0.61835145    -0.96060
O417        O  0.16019116  0.37058505  0.56198702    -0.89360
O418        O  0.19723483  0.34251132  0.58181428    -0.92200
C419        C  0.27268397  0.41721260  0.63509754     1.01550
C420        C  0.31164227  0.35634875  0.57626547     1.14480
C421        C  0.23048406  0.41766318  0.54003583     1.05260
O422        O  0.14935087  0.42159330  0.60077507    -0.94360
O423        O  0.11069007  0.39384591  0.57209243    -0.90100
O424        O  0.10231647  0.36814906  0.58830278    -0.83250
C425        C  0.09239899  0.38142875  0.57714103     1.11900
O426        O  0.24223930  0.36682353  0.50384796    -0.96330
Zr427      Zr  0.20442021  0.35717258  0.53939167     1.88940
O428        O  0.13255786  0.33828382  0.56698532    -0.72980
O429        O  0.14444408  0.40749760  0.53186162    -0.52240
O430        O  0.19177197  0.35353293  0.48991023    -0.96920
O431        O  0.22202049  0.32889558  0.53343642    -0.54140
O432        O  0.14653639  0.35521499  0.53337982    -0.73500
C433        C  0.13390239  0.34192263  0.54104743     0.98840
O434        O  0.11114660  0.35387193  0.64041407    -0.62320
O435        O  0.27402583  0.34683974  0.65609031    -0.57120
O436        O  0.15414988  0.33045210  0.62688188    -0.93800
O437        O  0.20790609  0.32301940  0.62907729    -0.92230
O438        O  0.24809745  0.38075603  0.68578724    -0.92590
O439        O  0.18127238  0.38051224  0.68897598    -0.91370
C440        C  0.17690353  0.32038101  0.63291048     1.17690
H441        H  0.27595324  0.37510442  0.63554273     0.33630
H442        H  0.14431850  0.38859758  0.62798771     0.44480
H443        H  0.19228186  0.33112557  0.57845217     0.38010
H444        H  0.21593490  0.38915912  0.53202306     0.34490
H445        H  0.19044744  0.41387184  0.68225028     0.26280
H446        H  0.14325687  0.41954229  0.53364135     0.32220
H447        H  0.18843185  0.34164780  0.48722690     0.38130
H448        H  0.24898238  0.39078067  0.69747805     0.32580
H449        H  0.26921937  0.33630321  0.66522955     0.31460
H450        H  0.29246712  0.32110307  0.62014032     0.33140
H451        H  0.23715741  0.32913078  0.51734372     0.32110
H452        H  0.16024248  0.37606881  0.68183192     0.36110
H453        H  0.12361234  0.35222634  0.65797101     0.28840
H454        H  0.31189749  0.40818333  0.55719414     0.33080
H455        H  0.26426203  0.36547149  0.51230343     0.35930
H456        H  0.29734776  0.34605866  0.65062803     0.28540
H457        H  0.10177341  0.36496561  0.64250999     0.41410
H458        H  0.16711978  0.42980478  0.59976281     0.31460
H459        H  0.18079652  0.41877120  0.65178317     0.39080
H460        H  0.20241998  0.32301264  0.52638225     0.30930
H461        H  0.16077281  0.40543916  0.51701282     0.30990
H462        H  0.30428685  0.39419948  0.53509660     0.31260
Zr463      Zr  0.13215984  0.64248113  0.80620492     2.17510
O464        O  0.16799001  0.64891656  0.84574147    -0.51100
O465        O  0.15210046  0.66345484  0.77440673    -0.74300
O466        O  0.17853005  0.62588684  0.79312161    -0.81090
O467        O  0.07341073  0.67441347  0.82887898    -0.82830
O468        O  0.16969391  0.59929811  0.80034690    -0.78460
O469        O  0.12479026  0.66498320  0.83792796    -0.90090
O470        O  0.12092827  0.66126604  0.73495833    -0.76050
O471        O  0.12651367  0.62605024  0.76495439    -0.85540
O472        O  0.08751225  0.65440912  0.78178959    -0.85230
O473        O  0.12180863  0.61506661  0.82179106    -0.71990
O474        O  0.08647149  0.64088205  0.83679973    -0.84130
Zr475      Zr  0.02577047  0.60884102  0.78777647     2.26420
Zr476      Zr  0.11472396  0.59848504  0.77966845     2.06270
Zr477      Zr  0.04168955  0.65199520  0.81136030     2.10050
Zr478      Zr  0.08208013  0.63838184  0.74074280     1.78760
O479        O  0.02081417  0.66354149  0.85482042    -0.92930
O480        O  0.11716861  0.62968572  0.70239867    -0.40740
O481        O  0.03446889  0.63589433  0.77002939    -0.77370
O482        O  0.07005011  0.61076270  0.75498514    -0.96060
O483        O  0.07063802  0.59707877  0.81205172    -0.89360
O484        O  0.03269389  0.62528125  0.82858974    -0.92200
C485        C  0.14332087  0.66825271  0.74996771     1.01550
C486        C  0.10105602  0.67493390  0.84136355     1.14480
C487        C  0.18652401  0.61234659  0.80422688     1.05260
O488        O  0.14360985  0.59627522  0.73543457    -0.94360
O489        O  0.07944786  0.57568450  0.76108325    -0.90100
O490        O  0.02581557  0.58307483  0.76423362    -0.83250
C491        C  0.04833790  0.57308316  0.75732229     1.11900
O492        O  0.12051788  0.61857225  0.88744564    -0.96330
Zr493      Zr  0.07747645  0.61388425  0.85271702     1.88940
O494        O  0.01515255  0.58785202  0.82295370    -0.72980
O495        O  0.13377120  0.57100248  0.79031713    -0.52240
O496        O  0.09637556  0.58700603  0.86726552    -0.96920
O497        O  0.05900863  0.62627496  0.89632949    -0.54140
O498        O  0.02738115  0.60049288  0.86354948    -0.73500
C499        C  0.01700985  0.58829095  0.84973489     0.98840
O500        O  0.48017053  0.60479450  0.75514897    -0.62320
O501        O  0.01787544  0.67387920  0.78372186    -0.57120
O502        O  0.47664030  0.62115873  0.80443985    -0.93800
O503        O  0.48366827  0.64822604  0.81393789    -0.92230
O504        O  0.04786663  0.66019658  0.72231581    -0.92590
O505        O  0.05051093  0.63033377  0.69958166    -0.91370
C506        C  0.46663592  0.63518225  0.81267339     1.17690
H507        H  0.09024406  0.66590271  0.77817767     0.33630
H508        H  0.06503232  0.60444396  0.73837980     0.44480
H509        H  0.01463082  0.62545559  0.84148272     0.38010
H510        H  0.13880209  0.61152929  0.83440290     0.34490
H511        H  0.11579055  0.63866731  0.68869909     0.26280
H512        H  0.15510184  0.56989965  0.78071713     0.32220
H513        H  0.08438182  0.58479587  0.88476831     0.38130
H514        H  0.06109293  0.66516435  0.70731620     0.32580
H515        H  0.50736073  0.68116026  0.79768506     0.31460
H516        H  0.01263654  0.65406152  0.86544772     0.33140
H517        H  0.05455245  0.61693819  0.90878976     0.32110
H518        H  0.02976368  0.62595751  0.70713771     0.36110
H519        H  0.46987543  0.61566854  0.75304312     0.28840
H520        H  0.18961369  0.65216173  0.83864978     0.33080
H521        H  0.11728931  0.61016712  0.90194096     0.35930
H522        H  0.03682341  0.68024771  0.77694625     0.28540
H523        H  0.49053665  0.60281180  0.73676841     0.41410
H524        H  0.16617909  0.60000277  0.73973129     0.31460
H525        H  0.13975933  0.63041844  0.70994704     0.39080
H526        H  0.03709254  0.63078584  0.89197182     0.30930
H527        H  0.13926441  0.57125227  0.81049308     0.30990
H528        H  0.17131309  0.63848412  0.85566329     0.31260
Zr529      Zr  0.12599373  0.38937954  0.05490549     2.17510
O530        O  0.08081814  0.39572743  0.08638166    -0.51100
O531        O  0.10730750  0.41063030  0.02281942    -0.74300
O532        O  0.13187029  0.41253612  0.08549713    -0.81090
O533        O  0.09486048  0.34547439  0.05491452    -0.82830
O534        O  0.17710261  0.41977337  0.06418851    -0.78460
O535        O  0.08048658  0.37101760  0.04518946    -0.90090
O536        O  0.14376309  0.41120791  0.98716810    -0.76050
O537        O  0.17254385  0.40170606  0.03363670    -0.85540
O538        O  0.13415561  0.37408853  0.01262478    -0.85230
O539        O  0.17080762  0.38684127  0.08840143    -0.71990
O540        O  0.13684726  0.36165555  0.06838737    -0.84130
Zr541      Zr  0.23512174  0.35666527  0.03774055     2.26420
Zr542      Zr  0.21768277  0.39883771  0.06555119     2.06270
Zr543      Zr  0.14555569  0.34602787  0.02631560     2.10050
Zr544      Zr  0.18010577  0.38708470  0.99169614     1.78760
O545        O  0.12173290  0.31878440  0.02878662    -0.92930
O546        O  0.21579501  0.40873041  0.97495295    -0.40740
O547        O  0.19123388  0.35904874  0.00438044    -0.77370
O548        O  0.22677341  0.38430650  0.02265105    -0.96060
O549        O  0.22640765  0.37159980  0.07962125    -0.89360
O550        O  0.18955734  0.34345346  0.05912856    -0.92200
C551        C  0.11895136  0.41705228  0.00055501     1.01550
C552        C  0.07495827  0.35755975  0.05759040     1.14480
C553        C  0.15801648  0.42080174  0.08481764     1.05260
O554        O  0.24495057  0.42487498  0.05804962    -0.94360
O555        O  0.27692202  0.39661169  0.06216758    -0.90100
O556        O  0.28392194  0.36955028  0.05369516    -0.83250
C557        C  0.29448175  0.38368178  0.06061857     1.11900
O558        O  0.14211235  0.37025053  0.13496408    -0.96330
Zr559      Zr  0.18027166  0.35917570  0.10069819     1.88940
O560        O  0.25376226  0.33949491  0.07636015    -0.72980
O561        O  0.23259121  0.40455737  0.11414909    -0.52240
O562        O  0.18950965  0.35525238  0.15056294    -0.96920
O563        O  0.16053907  0.33127509  0.10639925    -0.54140
O564        O  0.23783147  0.35678766  0.10941097    -0.73500
C565        C  0.25137349  0.34353947  0.10216038     0.98840
O566        O  0.27890607  0.35286091  0.00370527    -0.62320
O567        O  0.11560747  0.34575190  0.98214644    -0.57120
O568        O  0.23612762  0.33063012  0.01537547    -0.93800
O569        O  0.18264783  0.32366369  0.00847878    -0.92230
O570        O  0.14554107  0.38035862  0.95162483    -0.92590
O571        O  0.21244180  0.37905441  0.95127364    -0.91370
C572        C  0.21395236  0.32090727  0.00657573     1.17690
H573        H  0.11509763  0.37492113  0.00067105     0.33630
H574        H  0.24623692  0.38832047  0.01357036     0.44480
H575        H  0.19425497  0.33211834  0.06292169     0.38010
H576        H  0.16625642  0.39235505  0.10581411     0.34490
H577        H  0.20347848  0.41380348  0.95940104     0.26280
H578        H  0.23602223  0.41651739  0.11515009     0.32220
H579        H  0.19554056  0.34361324  0.15261484     0.38130
H580        H  0.14598524  0.39027169  0.93990593     0.32580
H581        H  0.12118559  0.33511783  0.97340257     0.31460
H582        H  0.10096046  0.31941333  0.01807497     0.33140
H583        H  0.14506127  0.33192009  0.12223266     0.32110
H584        H  0.23307294  0.37473449  0.95930192     0.36110
H585        H  0.26752284  0.35129556  0.98555758     0.28840
H586        H  0.07504940  0.40739335  0.08416817     0.33080
H587        H  0.12016394  0.36747235  0.12738724     0.35930
H588        H  0.09230670  0.34468075  0.98750765     0.28540
H589        H  0.28951113  0.36368026  0.00192286     0.41410
H590        H  0.24280147  0.42676497  0.03771997     0.31460
H591        H  0.21555957  0.41706981  0.99004594     0.39080
H592        H  0.17956245  0.32513452  0.11378378     0.30930
H593        H  0.21295517  0.40249726  0.12560331     0.30990
H594        H  0.08937080  0.39466837  0.10569366     0.31260
Zr595      Zr  0.49655275  0.38931203  0.07718914     2.17510
O596        O  0.03828669  0.39387787  0.04166479    -0.51100
O597        O  0.01863627  0.41058780  0.10810799    -0.74300
O598        O  0.48823211  0.41228121  0.04674919    -0.81090
O599        O  0.02721995  0.34557856  0.08031181    -0.82830
O600        O  0.44200736  0.42158488  0.06551781    -0.78460
O601        O  0.04151008  0.37133859  0.08923957    -0.90090
O602        O  0.48461850  0.41155847  0.14544659    -0.76050
O603        O  0.45095351  0.40249614  0.09827153    -0.85540
O604        O  0.48823139  0.37471543  0.11995288    -0.85230
O605        O  0.45202107  0.38630239  0.04388589    -0.71990
O606        O  0.48526919  0.36118118  0.06562422    -0.84130
Zr607      Zr  0.38700089  0.35727528  0.09525098     2.26420
Zr608      Zr  0.40582008  0.39880478  0.06656298     2.06270
Zr609      Zr  0.47556819  0.34631780  0.10811284     2.10050
Zr610      Zr  0.44360186  0.38877101  0.14069924     1.78760
O611        O  0.50005041  0.31918334  0.10711026    -0.92930
O612        O  0.41082267  0.41214614  0.15532392    -0.40740
O613        O  0.43051839  0.36047397  0.12911811    -0.77370
O614        O  0.39676987  0.38514403  0.10981929    -0.96060
O615        O  0.39634455  0.37133920  0.05294249    -0.89360
O616        O  0.43250536  0.34341326  0.07463956    -0.92200
C617        C  0.50939778  0.41697189  0.13135379     1.01550
C618        C  0.04712580  0.35767176  0.07731531     1.14480
C619        C  0.46372510  0.42186342  0.04676980     1.05260
O620        O  0.37475190  0.42362708  0.07573651    -0.94360
O621        O  0.34657151  0.39653451  0.06576142    -0.90100
O622        O  0.33902449  0.36997893  0.07720583    -0.83250
C623        C  0.32880968  0.38377513  0.06850006     1.11900
O624        O  0.48204020  0.36857157  0.99886206    -0.96330
Zr625      Zr  0.44271609  0.35834746  0.03266042     1.88940
O626        O  0.37067875  0.33821085  0.05763353    -0.72980
O627        O  0.39804493  0.40451376  0.01708230    -0.52240
O628        O  0.43354605  0.35422323  0.98274214    -0.96920
O629        O  0.46369307  0.33058154  0.02793409    -0.54140
O630        O  0.38580580  0.35449490  0.02341312    -0.73500
C631        C  0.37404364  0.34108740  0.03151842     0.98840
O632        O  0.34205306  0.35498146  0.12848772    -0.62320
O633        O  0.50331039  0.34682225  0.15330279    -0.57120
O634        O  0.38328957  0.33180965  0.11885229    -0.93800
O635        O  0.43637405  0.32412742  0.12523823    -0.92230
O636        O  0.47585711  0.38116280  0.18149695    -0.92590
O637        O  0.40946130  0.38340458  0.18116256    -0.91370
C638        C  0.40477182  0.32169670  0.12734171     1.17690
H639        H  0.50727147  0.37560562  0.13194525     0.33630
H640        H  0.37737813  0.38948988  0.11866832     0.44480
H641        H  0.42801379  0.33199429  0.07109560     0.38010
H642        H  0.45618481  0.39160771  0.02632203     0.34490
H643        H  0.42345277  0.41721282  0.17084063     0.26280
H644        H  0.38103059  0.39664618  0.01084907     0.32220
H645        H  0.43094148  0.34228381  0.98017928     0.38130
H646        H  0.47778451  0.39136194  0.19264301     0.32580
H647        H  0.99740112  0.33630534  0.16203750     0.31460
H648        H  0.02067662  0.32021391  0.11795823     0.33140
H649        H  0.47978489  0.33117630  0.01256363     0.32110
H650        H  0.38952496  0.37817778  0.17330118     0.36110
H651        H  0.35284707  0.35404370  0.14698495     0.28840
H652        H  0.04476985  0.40553008  0.04223513     0.33080
H653        H  0.50324854  0.36381720  0.00480090     0.35930
H654        H  0.02687222  0.34574072  0.14881158     0.28540
H655        H  0.33165744  0.36590240  0.12912590     0.41410
H656        H  0.37689544  0.42541669  0.09613886     0.31460
H657        H  0.41276333  0.41999545  0.13978550     0.39080
H658        H  0.44523666  0.32414919  0.02007241     0.30930
H659        H  0.38696965  0.41526783  0.01670204     0.30990
H660        H  0.02724994  0.39227923  0.02337311     0.31260
Zr661      Zr  0.38167457  0.63959356  0.30879683     2.17510
O662        O  0.41924632  0.64543614  0.34713973    -0.51100
O663        O  0.40375082  0.65987479  0.27673241    -0.74300
O664        O  0.42605378  0.62206376  0.29350415    -0.81090
O665        O  0.32314366  0.67020859  0.33841986    -0.82830
O666        O  0.41719362  0.59546569  0.29992625    -0.78460
O667        O  0.37766362  0.66417045  0.33680947    -0.90090
O668        O  0.37112763  0.65892331  0.23813374    -0.76050
O669        O  0.37420802  0.62373524  0.26704656    -0.85540
O670        O  0.33638893  0.65214086  0.28635646    -0.85230
O671        O  0.37090567  0.61197398  0.32326217    -0.71990
O672        O  0.33719664  0.63794619  0.34073465    -0.84130
Zr673      Zr  0.27436378  0.60637651  0.29158917     2.26420
Zr674      Zr  0.36182607  0.59587229  0.28058208     2.06270
Zr675      Zr  0.29117267  0.64919350  0.31697108     2.10050
Zr676      Zr  0.32958195  0.63693895  0.24464913     1.78760
O677        O  0.26889620  0.65830811  0.36157950    -0.92930
O678        O  0.36084111  0.62817904  0.20401660    -0.40740
O679        O  0.28300322  0.63374373  0.27506297    -0.77370
O680        O  0.31709205  0.60896387  0.25751494    -0.96060
O681        O  0.31956148  0.59425182  0.31453372    -0.89360
O682        O  0.28224385  0.62221661  0.33289136    -0.92200
C683        C  0.39515369  0.66505950  0.25251689     1.01550
C684        C  0.35315089  0.67288038  0.34435615     1.14480
C685        C  0.43424406  0.60837600  0.30405170     1.05260
O686        O  0.38907883  0.59433880  0.23552480    -0.94360
O687        O  0.32507606  0.57334916  0.26204424    -0.90100
O688        O  0.27181704  0.58066224  0.26785203    -0.83250
C689        C  0.29373582  0.57071305  0.25952933     1.11900
O690        O  0.37278775  0.61461088  0.38899354    -0.96330
Zr691      Zr  0.32806523  0.61073229  0.35553623     1.88940
O692        O  0.26386470  0.58543561  0.32721115    -0.72980
O693        O  0.38014994  0.56798705  0.28894131    -0.52240
O694        O  0.34744286  0.58388418  0.36981095    -0.96920
O695        O  0.31109031  0.62363405  0.39917556    -0.54140
O696        O  0.27900184  0.59709349  0.36810540    -0.73500
C697        C  0.26670058  0.58545486  0.35400111     0.98840
O698        O  0.22827572  0.60288560  0.25925188    -0.62320
O699        O  0.26969438  0.67275793  0.29210630    -0.57120
O700        O  0.22590001  0.61872453  0.30844122    -0.93800
O701        O  0.23270763  0.64568612  0.31862314    -0.92230
O702        O  0.29662759  0.66017826  0.23001523    -0.92590
O703        O  0.29460180  0.63093502  0.20451342    -0.91370
C704        C  0.21563458  0.63265096  0.31666304     1.17690
H705        H  0.33994083  0.66361830  0.28300591     0.33630
H706        H  0.31127719  0.60295169  0.24076125     0.44480
H707        H  0.26426707  0.62215128  0.34589572     0.38010
H708        H  0.38816541  0.60809168  0.33528654     0.34490
H709        H  0.36012553  0.63762778  0.19122994     0.26280
H710        H  0.40109321  0.56688062  0.27874425     0.32220
H711        H  0.33558434  0.58156537  0.38733856     0.38130
H712        H  0.30958159  0.66543241  0.21513191     0.32580
H713        H  0.25614689  0.67860661  0.30606815     0.31460
H714        H  0.25794277  0.66882322  0.35753930     0.33140
H715        H  0.30561849  0.61445444  0.41167932     0.32110
H716        H  0.27440502  0.62630431  0.21267364     0.36110
H717        H  0.21819893  0.61382970  0.25744391     0.28840
H718        H  0.44044505  0.64798578  0.33843664     0.33080
H719        H  0.36817876  0.60711851  0.40463414     0.35930
H720        H  0.28885709  0.67997620  0.28934831     0.28540
H721        H  0.23836306  0.60099220  0.24073066     0.41410
H722        H  0.41179944  0.59799310  0.23938585     0.31460
H723        H  0.38386689  0.62779345  0.21059252     0.39080
H724        H  0.28972460  0.62876659  0.39482220     0.30930
H725        H  0.38629428  0.56770161  0.30897473     0.30990
H726        H  0.42217605  0.63497461  0.35704972     0.31260
Zr727      Zr  0.01642267  0.63866966  0.32374125     2.17510
O728        O  0.47959523  0.64527884  0.28533918    -0.51100
O729        O  0.99410425  0.65898275  0.35576059    -0.74300
O730        O  0.46964252  0.62198062  0.33442035    -0.81090
O731        O  0.07558533  0.66951284  0.29857896    -0.82830
O732        O  0.47913253  0.59542486  0.32721211    -0.78460
O733        O  0.02147209  0.66269173  0.29599783    -0.90090
O734        O  0.02358210  0.65732516  0.39605654    -0.76050
O735        O  0.02050852  0.62265997  0.36507296    -0.85540
O736        O  0.05996216  0.65098635  0.34925894    -0.85230
O737        O  0.02770909  0.61137227  0.30769871    -0.71990
O738        O  0.06284159  0.63736035  0.29383518    -0.84130
Zr739      Zr  0.12196667  0.60543682  0.34488453     2.26420
Zr740      Zr  0.03293340  0.59508685  0.34996043     2.06270
Zr741      Zr  0.10679932  0.64853880  0.32062808     2.10050
Zr742      Zr  0.06420249  0.63526515  0.39031512     1.78760
O743        O  0.13222213  0.65717034  0.27720374    -0.92930
O744        O  0.03025894  0.62654091  0.42913784    -0.40740
O745        O  0.11251880  0.63267619  0.36204968    -0.77370
O746        O  0.07642843  0.60752247  0.37627796    -0.96060
O747        O  0.07828702  0.59363687  0.31882354    -0.89360
O748        O  0.11722924  0.62170736  0.30405440    -0.92200
C749        C  0.00126203  0.66382409  0.38058491     1.01550
C750        C  0.04610523  0.67167060  0.29044531     1.14480
C751        C  0.46215652  0.60834998  0.32311933     1.05260
O752        O  0.00144698  0.59347109  0.39291180    -0.94360
O753        O  0.06709366  0.57247924  0.36995156    -0.90100
O754        O  0.12087140  0.57971231  0.36806382    -0.83250
C755        C  0.09801645  0.56984911  0.37454311     1.11900
O756        O  0.03168719  0.61417944  0.24206077    -0.96330
Zr757      Zr  0.07340309  0.61030489  0.27814006     1.88940
O758        O  0.13434785  0.58454905  0.30936317    -0.72980
O759        O  0.01473296  0.56737797  0.33920085    -0.52240
O760        O  0.05617024  0.58329647  0.26207164    -0.96920
O761        O  0.09326354  0.62317284  0.23571484    -0.54140
O762        O  0.12456569  0.59746397  0.26896250    -0.73500
C763        C  0.13372997  0.58508868  0.28256510     0.98840
O764        O  0.16597114  0.60105688  0.37889211    -0.62320
O765        O  0.12612810  0.67252248  0.34624761    -0.57120
O766        O  0.17149292  0.61848147  0.33175837    -0.93800
O767        O  0.16514503  0.64559311  0.32314790    -0.92230
O768        O  0.09672351  0.65812064  0.40788467    -0.92590
O769        O  0.09662411  0.62826536  0.43133985    -0.91370
C770        C  0.18214986  0.63257880  0.32499935     1.17690
H771        H  0.05650254  0.66245920  0.35296649     0.33630
H772        H  0.08072652  0.60131502  0.39297847     0.44480
H773        H  0.13632811  0.62199657  0.29228347     0.38010
H774        H  0.01125469  0.60779031  0.29451321     0.34490
H775        H  0.03053379  0.63590767  0.44235690     0.26280
H776        H  0.49293250  0.56636319  0.34801280     0.32220
H777        H  0.06840959  0.58142177  0.24452879     0.38130
H778        H  0.08334824  0.66299976  0.42299387     0.32580
H779        H  0.13938221  0.67862583  0.33254730     0.31460
H780        H  0.14220879  0.66792048  0.28156381     0.33140
H781        H  0.10023921  0.61398877  0.22354171     0.32110
H782        H  0.11742246  0.62395702  0.42367445     0.36110
H783        H  0.17638635  0.61185690  0.38190886     0.28840
H784        H  0.45815581  0.64767408  0.29383460     0.33080
H785        H  0.03705135  0.60634260  0.22690446     0.35930
H786        H  0.10640763  0.67936944  0.34902647     0.28540
H787        H  0.15477112  0.59900469  0.39683610     0.41410
H788        H  0.97907574  0.59697650  0.38755360     0.31460
H789        H  0.00764344  0.62638259  0.42155623     0.39080
H790        H  0.11395050  0.62861146  0.24138163     0.30930
H791        H  0.51028090  0.56728802  0.31884268     0.30990
H792        H  0.47679880  0.63497493  0.27465150     0.31260
Zr793      Zr  0.38942686  0.38708809  0.55562364     2.17510
O794        O  0.35518147  0.38868764  0.59745813    -0.51100
O795        O  0.36581366  0.40795397  0.52501402    -0.74300
O796        O  0.39155582  0.41206460  0.58150604    -0.81090
O797        O  0.35869832  0.34401439  0.55279059    -0.82830
O798        O  0.44564230  0.41605756  0.59168868    -0.78460
O799        O  0.34379139  0.36955491  0.54325756    -0.90090
O800        O  0.40137962  0.40942505  0.48881795    -0.76050
O801        O  0.43500159  0.40068514  0.53563729    -0.85540
O802        O  0.39786509  0.37239894  0.51285144    -0.85230
O803        O  0.43368391  0.38447514  0.58853613    -0.71990
O804        O  0.40091145  0.35926592  0.56730618    -0.84130
Zr805      Zr  0.49936884  0.35516500  0.53959556     2.26420
Zr806      Zr  0.48019394  0.39717283  0.56702170     2.06270
Zr807      Zr  0.41053193  0.34424523  0.52502554     2.10050
Zr808      Zr  0.44276281  0.38655997  0.49316743     1.78760
O809        O  0.38459086  0.31743188  0.52480731    -0.92930
O810        O  0.47470512  0.40992549  0.47769759    -0.40740
O811        O  0.45621689  0.35836364  0.50515537    -0.77370
O812        O  0.48953952  0.38284888  0.52423046    -0.96060
O813        O  0.48912665  0.36984191  0.58123370    -0.89360
O814        O  0.45303842  0.34170090  0.55915920    -0.92200
C815        C  0.37581279  0.41463685  0.50236719     1.01550
C816        C  0.33852568  0.35605299  0.55554804     1.14480
C817        C  0.41508556  0.41891399  0.59461599     1.05260
O818        O  0.99814981  0.42138672  0.54219029    -0.94360
O819        O  0.03969157  0.39375793  0.57072552    -0.90100
O820        O  0.04838637  0.36725024  0.55858567    -0.83250
C821        C  0.05804973  0.38110694  0.56804713     1.11900
O822        O  0.39252391  0.35747373  0.62880357    -0.96330
Zr823      Zr  0.44262043  0.35698023  0.60118184     1.88940
O824        O  0.01432122  0.33661993  0.57836715    -0.72980
O825        O  0.50638019  0.40721081  0.60975289    -0.52240
O826        O  0.44894088  0.36885052  0.64773270    -0.96920
O827        O  0.43421311  0.32897957  0.61707197    -0.54140
O828        O  0.49788227  0.35198157  0.61422499    -0.73500
C829        C  0.01124291  0.33921188  0.60478844     0.98840
O830        O  0.04453968  0.35246657  0.50664828    -0.62320
O831        O  0.38458863  0.34458790  0.47906982    -0.57120
O832        O  0.50227007  0.32920351  0.51652705    -0.93800
O833        O  0.44917728  0.32160938  0.50949815    -0.92230
O834        O  0.41082735  0.37843121  0.45225875    -0.92590
O835        O  0.47710306  0.38080317  0.45283288    -0.91370
C836        C  0.48068265  0.31903049  0.50803528     1.17690
H837        H  0.37890287  0.37321979  0.50078123     0.33630
H838        H  0.00903935  0.38706158  0.51546614     0.44480
H839        H  0.45724230  0.33030524  0.56272364     0.38010
H840        H  0.42837315  0.38956658  0.60616711     0.34490
H841        H  0.46406523  0.41333571  0.46004157     0.26280
H842        H  0.00581839  0.41927877  0.60854877     0.32220
H843        H  0.45634743  0.35967199  0.65954622     0.38130
H844        H  0.40797508  0.38862472  0.44151194     0.32580
H845        H  0.39053637  0.33396767  0.47045763     0.31460
H846        H  0.36378731  0.31885363  0.51437666     0.33140
H847        H  0.44155660  0.32910652  0.63682212     0.32110
H848        H  0.99685799  0.37551498  0.46074874     0.36110
H849        H  0.03385369  0.35110315  0.48815248     0.28840
H850        H  0.34377781  0.39933989  0.59834599     0.33080
H851        H  0.39567377  0.34939710  0.64386516     0.35930
H852        H  0.36082667  0.34370019  0.48285830     0.28540
H853        H  0.05464281  0.36344799  0.50575985     0.41410
H854        H  0.48070446  0.42955223  0.54562058     0.31460
H855        H  0.46926880  0.41875965  0.49112314     0.39080
H856        H  0.45052615  0.32206185  0.60741893     0.30930
H857        H  0.49106851  0.40446231  0.62500291     0.30990
H858        H  0.37028058  0.38873250  0.61370372     0.31260
Zr859      Zr  0.26771524  0.64398584  0.82331593     2.17510
O860        O  0.22851529  0.65214119  0.78743860    -0.51100
O861        O  0.24532672  0.66541093  0.85406948    -0.74300
O862        O  0.22152861  0.62660877  0.83415987    -0.81090
O863        O  0.33194293  0.67159164  0.79105180    -0.82830
O864        O  0.23116647  0.59991247  0.82850328    -0.78460
O865        O  0.27917560  0.66302908  0.78592875    -0.90090
O866        O  0.27278673  0.66333034  0.89530583    -0.76050
O867        O  0.27154821  0.62808099  0.86497857    -0.85540
O868        O  0.31091978  0.65676660  0.84891432    -0.85230
O869        O  0.27898599  0.61616032  0.80906976    -0.71990
O870        O  0.31538253  0.64136406  0.79546632    -0.84130
Zr871      Zr  0.37313321  0.61020200  0.84613501     2.26420
Zr872      Zr  0.28459064  0.60013679  0.85181966     2.06270
Zr873      Zr  0.35904005  0.65315470  0.82174468     2.10050
Zr874      Zr  0.31438139  0.64120637  0.89039086     1.78760
O875        O  0.38995960  0.66693811  0.78541132    -0.92930
O876        O  0.27936468  0.63250129  0.92856016    -0.40740
O877        O  0.36391547  0.63759282  0.86340695    -0.77370
O878        O  0.32764394  0.61316725  0.87762513    -0.96060
O879        O  0.32955998  0.59800680  0.82057080    -0.89360
O880        O  0.36841994  0.62616542  0.80499143    -0.92200
C881        C  0.25105722  0.67009098  0.87937307     1.01550
C882        C  0.30397478  0.67176267  0.77919437     1.14480
C883        C  0.21417780  0.61272789  0.82357599     1.05260
O884        O  0.25554154  0.59955286  0.89608225    -0.94360
O885        O  0.32035585  0.57706269  0.86951212    -0.90100
O886        O  0.37348515  0.58534956  0.87142962    -0.83250
C887        C  0.35118574  0.57478778  0.87553556     1.11900
O888        O  0.28299877  0.61866459  0.74352167    -0.96330
Zr889      Zr  0.32457143  0.61440769  0.77957877     1.88940
O890        O  0.38297363  0.58836976  0.81126547    -0.72980
O891        O  0.26357355  0.57244622  0.84561975    -0.52240
O892        O  0.30606435  0.58744373  0.76436269    -0.96920
O893        O  0.34434829  0.62696044  0.73685548    -0.54140
O894        O  0.37512030  0.60107589  0.77049616    -0.73500
C895        C  0.38299370  0.58862488  0.78440714     0.98840
O896        O  0.41775846  0.60505229  0.87905804    -0.62320
O897        O  0.37294771  0.67595958  0.85251407    -0.57120
O898        O  0.42328128  0.62165962  0.83095928    -0.93800
O899        O  0.41711716  0.64853944  0.82072927    -0.92230
O900        O  0.34675303  0.66406767  0.90811291    -0.92590
O901        O  0.34482442  0.63500189  0.93288355    -0.91370
C902        C  0.43382721  0.63543230  0.82260325     1.17690
H903        H  0.30755271  0.66830150  0.85211322     0.33630
H904        H  0.33189674  0.60716098  0.89455533     0.44480
H905        H  0.38696100  0.62616981  0.79260493     0.38010
H906        H  0.26290217  0.61239578  0.79570662     0.34490
H907        H  0.27931059  0.64185932  0.94179814     0.26280
H908        H  0.24162495  0.57245238  0.85434651     0.32220
H909        H  0.31784005  0.58534292  0.74665999     0.38130
H910        H  0.33242083  0.66956674  0.92190679     0.32580
H911        H  0.39672511  0.67766815  0.84972484     0.31460
H912        H  0.39843684  0.67705381  0.79433241     0.33140
H913        H  0.35245617  0.61774809  0.72528253     0.32110
H914        H  0.36549254  0.63002206  0.92620530     0.36110
H915        H  0.43559537  0.60001064  0.86799157     0.28840
H916        H  0.20700593  0.65343772  0.79638473     0.33080
H917        H  0.28759561  0.61049524  0.72869327     0.35930
H918        H  0.36249398  0.68554937  0.84368064     0.28540
H919        H  0.42615131  0.61596920  0.88457379     0.41410
H920        H  0.23245947  0.60190574  0.89106832     0.31460
H921        H  0.25694338  0.63236994  0.92056598     0.39080
H922        H  0.36435815  0.63297187  0.74261245     0.30930
H923        H  0.25935505  0.57121173  0.82531929     0.30990
H924        H  0.22632848  0.64251653  0.77491936     0.31260
Zr925      Zr  0.01121457  0.73348647  0.24037298     2.17510
O926        O  0.01720029  0.72171385  0.28683233    -0.51100
O927        O  0.46973627  0.71136469  0.24184893    -0.74300
O928        O  0.48779649  0.75060300  0.27628268    -0.81090
O929        O  0.06768650  0.69976776  0.20954085    -0.82830
O930        O  0.47209166  0.77467923  0.25701087    -0.78460
O931        O  0.06262548  0.71961606  0.23993303    -0.90090
O932        O  0.44336994  0.71059168  0.19993115    -0.76050
O933        O  0.46965635  0.74651225  0.21360331    -0.85540
O934        O  0.01009032  0.71881845  0.19704603    -0.85230
O935        O  0.02951381  0.76155984  0.23625137    -0.71990
O936        O  0.06513928  0.73601748  0.22035308    -0.84130
Zr937      Zr  0.04063546  0.76162588  0.14539839     2.26420
Zr938      Zr  0.48826231  0.77408966  0.20759120     2.06270
Zr939      Zr  0.06378398  0.72138141  0.17648238     2.10050
Zr940      Zr  0.46851479  0.73170793  0.17057419     1.78760
O941        O  0.12246791  0.71736496  0.18264988    -0.92930
O942        O  0.41137566  0.73993595  0.17502318    -0.40740
O943        O  0.02170665  0.73406583  0.14928142    -0.77370
O944        O  0.48586415  0.75963061  0.16391204    -0.96060
O945        O  0.04196796  0.77637967  0.18826004    -0.89360
O946        O  0.08227634  0.74890072  0.17202307    -0.92200
C947        C  0.44823947  0.70526304  0.22484528     1.01550
C948        C  0.06206306  0.70451883  0.23420776     1.14480
C949        C  0.47480950  0.76478079  0.27761375     1.05260
O950        O  0.43081219  0.77532777  0.19377840    -0.94360
O951        O  0.49942152  0.79749733  0.17717272    -0.90100
O952        O  0.52003577  0.78807086  0.13603096    -0.83250
C953        C  0.50923533  0.79934522  0.15186338     1.11900
O954        O  0.10160884  0.76173924  0.26364872    -0.96330
Zr955      Zr  0.08295987  0.76360463  0.21529078     1.88940
O956        O  0.09091445  0.77789234  0.14051384    -0.72980
O957        O  0.47698766  0.80155138  0.22528801    -0.52240
O958        O  0.08289260  0.79109642  0.23519058    -0.96920
O959        O  0.13889688  0.75354157  0.22018193    -0.54140
O960        O  0.11526525  0.78006669  0.18318705    -0.73500
C961        C  0.11354552  0.78327577  0.15701613     0.98840
O962        O  0.52032379  0.76770816  0.09856893    -0.62320
O963        O  0.05436543  0.69545689  0.15236855    -0.57120
O964        O  0.06563005  0.74464214  0.11043418    -0.93800
O965        O  0.08100819  0.72024180  0.12859997    -0.92230
O966        O  0.46786886  0.70709190  0.14169889    -0.92590
O967        O  0.44275877  0.73607221  0.12523919    -0.91370
C968        C  0.07801656  0.73036193  0.10863514     1.17690
H969        H  0.00557852  0.70733240  0.19930752     0.33630
H970        H  0.47073472  0.76502562  0.15143224     0.44480
H971        H  0.10322532  0.74917545  0.16273990     0.38010
H972        H  0.03167276  0.76694863  0.25416786     0.34490
H973        H  0.39864636  0.73031900  0.16852219     0.26280
H974        H  0.45451944  0.80119157  0.23298153     0.32220
H975        H  0.10590512  0.79484619  0.23392432     0.38130
H976        H  0.44524946  0.70282176  0.14325401     0.32580
H977        H  0.07353471  0.68858770  0.15712411     0.31460
H978        H  0.12739590  0.70734211  0.17175492     0.33140
H979        H  0.15258364  0.76348938  0.22198845     0.32110
H980        H  0.46078124  0.73991376  0.11317026     0.36110
H981        H  0.53999273  0.77003160  0.08722448     0.28840
H982        H  0.99488661  0.72137057  0.29483853     0.33080
H983        H  0.11824056  0.77045176  0.26608795     0.35930
H984        H  0.03573789  0.69035363  0.16220197     0.28540
H985        H  0.51162239  0.75725222  0.09108909     0.41410
H986        H  0.41861818  0.77358943  0.21133940     0.31460
H987        H  0.40735474  0.74045674  0.19539284     0.39080
H988        H  0.14449787  0.74899699  0.20159067     0.30930
H989        H  0.99158901  0.80310041  0.24168566     0.30990
H990        H  0.02915528  0.73000511  0.29809664     0.31260
Zr991      Zr  0.13094349  0.73697002  0.89360983     2.17510
O992        O  0.12449354  0.72440540  0.84746949    -0.51100
O993        O  0.17383477  0.71554686  0.89128465    -0.74300
O994        O  0.15252996  0.75360197  0.85671491    -0.81090
O995        O  0.08389214  0.70315556  0.92689931    -0.82830
O996        O  0.16594629  0.77859577  0.87436396    -0.78460
O997        O  0.08165907  0.72138293  0.89366294    -0.90090
O998        O  0.20248243  0.71624369  0.93207083    -0.76050
O999        O  0.17256211  0.75156484  0.91814448    -0.85540
O1000       O  0.13541919  0.72328016  0.93740186    -0.85230
O1001       O  0.11053373  0.76471667  0.89730594    -0.71990
O1002       O  0.07749118  0.73877028  0.91495398    -0.84130
Zr1003     Zr  0.10336786  0.76716402  0.98882518     2.26420
Zr1004     Zr  0.15189801  0.77883641  0.92409356     2.06270
Zr1005     Zr  0.08239051  0.72557589  0.95942599     2.10050
Zr1006     Zr  0.17725159  0.73775509  0.96145726     1.78760
O1007       O  0.02284596  0.72406023  0.95726191    -0.92930
O1008       O  0.23316255  0.74716418  0.95387045    -0.40740
O1009       O  0.12476222  0.74002568  0.98370328    -0.77370
O1010       O  0.15779617  0.76545325  0.96827999    -0.96060
O1011       O  0.09873380  0.78051421  0.94508353    -0.89360
O1012       O  0.06145325  0.75280110  0.96428577    -0.92200
C1013       C  0.19667057  0.71020515  0.90758270     1.01550
C1014       C  0.08500496  0.70673735  0.90128026     1.14480
C1015       C  0.16403626  0.76803309  0.85445566     1.05260
O1016       O  0.20895614  0.78205766  0.93830010    -0.94360
O1017       O  0.13373180  0.80232879  0.95201947    -0.90100
O1018       O  0.13561690  0.79132428  0.99470503    -0.83250
C1019       C  0.13226751  0.80349573  0.97871744     1.11900
O1020       O  0.03716184  0.76201133  0.87254837    -0.96330
Zr1021     Zr  0.05783328  0.76614562  0.91998045     1.88940
O1022       O  0.05111629  0.78263265  0.99332625    -0.72980
O1023       O  0.16445508  0.80589704  0.90589327    -0.52240
O1024       O  0.05523589  0.79276108  0.89760547    -0.96920
O1025       O  0.00221724  0.75525833  0.91844445    -0.54140
O1026       O  0.02554386  0.78348302  0.95112625    -0.73500
C1027       C  0.02768375  0.78742642  0.97706145     0.98840
O1028       O  0.10631962  0.77961543  0.03532533    -0.62320
O1029       O  0.07493211  0.69933177  0.98239475    -0.57120
O1030       O  0.09779329  0.74772221  0.02651562    -0.93800
O1031       O  0.08460919  0.72263767  0.00937704    -0.92230
O1032       O  0.18117026  0.71416243  0.99197458    -0.92590
O1033       O  0.20510705  0.74348843  0.00557697    -0.91370
C1034       C  0.09108463  0.73254722  0.02932674     1.17690
H1035       H  0.14105610  0.71187052  0.93569400     0.33630
H1036       H  0.17389190  0.77102593  0.97974660     0.44480
H1037       H  0.04103674  0.75295646  0.97439561     0.38010
H1038       H  0.10727383  0.76958923  0.87920916     0.34490
H1039       H  0.24719035  0.73814151  0.96064632     0.26280
H1040       H  0.18643361  0.80505027  0.89732803     0.32220
H1041       H  0.03201023  0.79614227  0.89905841     0.38130
H1042       H  0.20362949  0.70990759  0.98913614     0.32580
H1043       H  0.05631880  0.69395535  0.97266516     0.31460
H1044       H  0.01608676  0.72231882  0.97685471     0.33140
H1045       H  0.98819258  0.76472891  0.91376242     0.32110
H1046       H  0.18750880  0.74729749  0.01821626     0.36110
H1047       H  0.08588561  0.77646390  0.04497435     0.28840
H1048       H  0.14662674  0.72414552  0.83909191     0.33080
H1049       H  0.02019472  0.77048758  0.86971396     0.35930
H1050       H  0.09440907  0.69274101  0.97736028     0.28540
H1051       H  0.12411186  0.77385590  0.04537813     0.41410
H1052       H  0.22160892  0.77962974  0.92116695     0.31460
H1053       H  0.23601371  0.74696988  0.93333999     0.39080
H1054       H  0.99677691  0.75283746  0.93810841     0.30930
H1055       H  0.14912817  0.80758034  0.89006734     0.30990
H1056       H  0.11191806  0.73235500  0.83619993     0.31260
Zr1057     Zr  0.24335098  0.74133898  0.73692156     2.17510
O1058       O  0.26755009  0.73773880  0.78317927    -0.51100
O1059       O  0.20377151  0.71887625  0.74042860    -0.74300
O1060       O  0.21108498  0.75424944  0.77317717    -0.81090
O1061       O  0.30114893  0.71084844  0.70277804    -0.82830
O1062       O  0.19644816  0.77943239  0.75782068    -0.78460
O1063       O  0.27469495  0.71725681  0.74324176    -0.90090
O1064       O  0.17910886  0.71599253  0.69797503    -0.76050
O1065       O  0.19766219  0.75253849  0.71299148    -0.85540
O1066       O  0.24267550  0.72776364  0.69281164    -0.85230
O1067       O  0.25622449  0.76992272  0.73434005    -0.71990
O1068       O  0.29596223  0.74623295  0.71604053    -0.84130
Zr1069     Zr  0.26135375  0.77321731  0.64333753     2.26420
Zr1070     Zr  0.21079250  0.78094297  0.70860776     2.06270
Zr1071     Zr  0.29380629  0.73337101  0.67101060     2.10050
Zr1072     Zr  0.19727475  0.73878930  0.66896483     1.78760
O1073       O  0.35338806  0.73349403  0.67372640    -0.92930
O1074       O  0.13911110  0.74401989  0.67608432    -0.40740
O1075       O  0.24840320  0.74468219  0.64632006    -0.77370
O1076       O  0.20797603  0.76739477  0.66397818    -0.96060
O1077       O  0.26301412  0.78649076  0.68763117    -0.89360
O1078       O  0.30686781  0.76172841  0.66719923    -0.92200
C1079       C  0.18472502  0.71133174  0.72313239     1.01550
C1080       C  0.29194161  0.70797342  0.72774990     1.14480
C1081       C  0.19818882  0.76837892  0.77654863     1.05260
O1082       O  0.15240060  0.78106347  0.69788037    -0.94360
O1083       O  0.21608070  0.80492195  0.67954381    -0.90100
O1084       O  0.21746377  0.79208978  0.63820837    -0.83250
C1085       C  0.21625914  0.80494219  0.65289349     1.11900
O1086       O  0.33093390  0.77042932  0.75843200    -0.96330
Zr1087     Zr  0.30784046  0.77479677  0.71198450     1.88940
O1088       O  0.30486682  0.79453539  0.64148082    -0.72980
O1089       O  0.19916155  0.80752998  0.72974264    -0.52240
O1090       O  0.30501309  0.80027755  0.73850971    -0.96920
O1091       O  0.36600201  0.76800462  0.70999289    -0.54140
O1092       O  0.33229154  0.79569521  0.68283717    -0.73500
C1093       C  0.32703270  0.80065138  0.65788889     0.98840
O1094       O  0.25910644  0.78364560  0.59571968    -0.62320
O1095       O  0.29544210  0.70729229  0.64605475    -0.57120
O1096       O  0.27740397  0.75613147  0.60435586    -0.93800
O1097       O  0.30186396  0.73321440  0.62094050    -0.92230
O1098       O  0.19999235  0.71489260  0.63845470    -0.92590
O1099       O  0.16845032  0.74247417  0.62477997    -0.91370
C1100       C  0.29254539  0.74257440  0.60114976     1.17690
H1101       H  0.24020460  0.71608322  0.69436248     0.33630
H1102       H  0.18890955  0.77100755  0.65369667     0.44480
H1103       H  0.32688040  0.76336445  0.65690183     0.38010
H1104       H  0.25754605  0.77466073  0.75285309     0.34490
H1105       H  0.12803833  0.73388824  0.66967100     0.26280
H1106       H  0.17703368  0.80664714  0.73799335     0.32220
H1107       H  0.32723565  0.80506699  0.73722721     0.38130
H1108       H  0.17863539  0.70933839  0.64082759     0.32580
H1109       H  0.31600522  0.70193015  0.65210661     0.31460
H1110       H  0.36049771  0.72781420  0.65645635     0.33140
H1111       H  0.37748404  0.77824411  0.71524263     0.32110
H1112       H  0.18475925  0.74769681  0.61246712     0.36110
H1113       H  0.23634195  0.78173460  0.58919970     0.28840
H1114       H  0.25012155  0.73284981  0.79476576     0.33080
H1115       H  0.34737786  0.77918534  0.76131373     0.35930
H1116       H  0.27766176  0.70064989  0.65422360     0.28540
H1117       H  0.26105289  0.79566616  0.59751939     0.41410
H1118       H  0.14186293  0.77721054  0.71521649     0.31460
H1119       H  0.13621183  0.74407443  0.69660919     0.39080
H1120       H  0.37092636  0.76650548  0.68991573     0.30930
H1121       H  0.21436426  0.80859696  0.74585061     0.30990
H1122       H  0.27070974  0.74890971  0.79081654     0.31260
Zr1123     Zr  0.39680986  0.73613595  0.39223780     2.17510
O1124       O  0.38901018  0.72440612  0.34563529    -0.51100
O1125       O  0.43382450  0.71241291  0.39055197    -0.74300
O1126       O  0.42362941  0.75211191  0.35640558    -0.81090
O1127       O  0.33620649  0.70552505  0.42294344    -0.82830
O1128       O  0.44739573  0.77453462  0.37629541    -0.78460
O1129       O  0.34382184  0.72381548  0.39032579    -0.90090
O1130       O  0.45988317  0.71035097  0.43246159    -0.76050
O1131       O  0.44132894  0.74655045  0.41914073    -0.85540
O1132       O  0.39473525  0.72181157  0.43561442    -0.85230
O1133       O  0.38535603  0.76495058  0.39673648    -0.71990
O1134       O  0.34377164  0.74163867  0.41253013    -0.84130
Zr1135     Zr  0.37536764  0.76598248  0.48769938     2.26420
Zr1136     Zr  0.42969017  0.77508817  0.42496442     2.06270
Zr1137     Zr  0.34199199  0.72736023  0.45635079     2.10050
Zr1138     Zr  0.43908135  0.73222442  0.46226252     1.78760
O1139       O  0.28312499  0.72574527  0.44833425    -0.92930
O1140       O  0.49759445  0.73776591  0.45875837    -0.40740
O1141       O  0.38686229  0.73746083  0.48368359    -0.77370
O1142       O  0.42879573  0.76082943  0.46855001    -0.96060
O1143       O  0.37731137  0.78048745  0.44507446    -0.89360
O1144       O  0.33068386  0.75584173  0.46109453    -0.92200
C1145       C  0.45391902  0.70540158  0.40746485     1.01550
C1146       C  0.34199362  0.70903922  0.39770541     1.14480
C1147       C  0.44087275  0.76517769  0.35535015     1.05260
O1148       O  0.48908049  0.77610731  0.42987929    -0.94360
O1149       O  0.43857446  0.79615946  0.46047000    -0.90100
O1150       O  0.40602914  0.78981470  0.49741310    -0.83250
C1151       C  0.42682121  0.79867231  0.48496083     1.11900
O1152       O  0.30956317  0.76596201  0.37162553    -0.96330
Zr1153     Zr  0.33317461  0.77020646  0.41803465     1.88940
O1154       O  0.33614664  0.78850889  0.49146437    -0.72980
O1155       O  0.42611868  0.80244698  0.40547021    -0.52240
O1156       O  0.33909396  0.79535700  0.39161577    -0.96920
O1157       O  0.27393782  0.76616361  0.41936863    -0.54140
O1158       O  0.31325625  0.79199511  0.44850768    -0.73500
C1159       C  0.31749807  0.79612803  0.47418440     0.98840
O1160       O  0.39714287  0.76646518  0.53536692    -0.62320
O1161       O  0.34480867  0.70164317  0.48155355    -0.57120
O1162       O  0.33958000  0.75370119  0.52130089    -0.93800
O1163       O  0.32232033  0.72917562  0.50402101    -0.92230
O1164       O  0.43493727  0.70739239  0.48971551    -0.92590
O1165       O  0.46477161  0.73516428  0.50805679    -0.91370
C1166       C  0.32437900  0.74010853  0.52323948     1.17690
H1167       H  0.39691491  0.71014385  0.43324121     0.33630
H1168       H  0.44549062  0.76520415  0.48088197     0.44480
H1169       H  0.31019420  0.75771514  0.47059339     0.38010
H1170       H  0.38440970  0.77034979  0.37890297     0.34490
H1171       H  0.00833500  0.72754397  0.46486724     0.26280
H1172       H  0.44827843  0.80476848  0.39815821     0.32220
H1173       H  0.31780868  0.80103423  0.39365119     0.38130
H1174       H  0.45698749  0.70238223  0.48872156     0.32580
H1175       H  0.32486223  0.69556150  0.47584396     0.31460
H1176       H  0.27594838  0.71627398  0.45950093     0.33140
H1177       H  0.26455977  0.77688909  0.41422741     0.32110
H1178       H  0.44677435  0.73867402  0.52052191     0.36110
H1179       H  0.39664594  0.75496231  0.54161056     0.28840
H1180       H  0.41123117  0.72306629  0.33772751     0.33080
H1181       H  0.29524583  0.77550392  0.36817126     0.35930
H1182       H  0.36312301  0.69556199  0.47284546     0.28540
H1183       H  0.42083160  0.76881353  0.53348933     0.41410
H1184       H  0.49735332  0.76824448  0.41576789     0.31460
H1185       H  0.50199458  0.73825734  0.43845954     0.39080
H1186       H  0.26837800  0.76494200  0.43933899     0.30930
H1187       H  0.41205866  0.80127511  0.38865083     0.30990
H1188       H  0.37864540  0.73313380  0.33443281     0.31260
Zr1189     Zr  0.39617256  0.86516081  0.57425870     2.17510
O1190       O  0.35270999  0.85991042  0.54012606    -0.51100
O1191       O  0.37495971  0.84467082  0.60572750    -0.74300
O1192       O  0.40523074  0.84191629  0.54337247    -0.81090
O1193       O  0.36399049  0.90892060  0.57890824    -0.82830
O1194       O  0.45233094  0.83298751  0.56143897    -0.78460
O1195       O  0.35127420  0.88295951  0.58725108    -0.90090
O1196       O  0.40880171  0.84492001  0.64356492    -0.76050
O1197       O  0.44247666  0.85258652  0.59537556    -0.85540
O1198       O  0.40479581  0.88007812  0.61715620    -0.85230
O1199       O  0.43951144  0.86826659  0.54064719    -0.71990
O1200       O  0.40649179  0.89323566  0.56307769    -0.84130
Zr1201     Zr  0.00415107  0.89860152  0.59161187     2.26420
Zr1202     Zr  0.48653083  0.85650514  0.56325049     2.06270
Zr1203     Zr  0.41599491  0.90847434  0.60563090     2.10050
Zr1204     Zr  0.45058079  0.86693277  0.63766862     1.78760
O1205       O  0.39004517  0.93526614  0.60524806    -0.92930
O1206       O  0.48317253  0.84331776  0.65115898    -0.40740
O1207       O  0.46222472  0.89525052  0.62629456    -0.77370
O1208       O  0.49619544  0.87075785  0.60628175    -0.96060
O1209       O  0.49469403  0.88395029  0.54961858    -0.89360
O1210       O  0.45754072  0.91147128  0.57133389    -0.92200
C1211       C  0.38405736  0.83920308  0.62952831     1.01550
C1212       C  0.34474514  0.89660552  0.57588751     1.14480
C1213       C  0.42990811  0.83235203  0.54311612     1.05260
O1214       O  0.01876073  0.83194107  0.57118386    -0.94360
O1215       O  0.04542753  0.85927654  0.56402380    -0.90100
O1216       O  0.05211018  0.88631208  0.57311802    -0.83250
C1217       C  0.06264263  0.87228895  0.56567699     1.11900
O1218       O  0.39704514  0.89501823  0.50176451    -0.96330
Zr1219     Zr  0.44761170  0.89609073  0.52916298     1.88940
O1220       O  0.01898820  0.91724635  0.55359460    -0.72980
O1221       O  0.99436772  0.85109746  0.51360692    -0.52240
O1222       O  0.45525255  0.88443329  0.48265775    -0.96920
O1223       O  0.43758170  0.92389430  0.51300066    -0.54140
O1224       O  0.50247809  0.90246856  0.51666568    -0.73500
C1225       C  0.01612160  0.91497722  0.52710167     0.98840
O1226       O  0.05006872  0.90178089  0.62412519    -0.62320
O1227       O  0.38964183  0.90760878  0.65115786    -0.57120
O1228       O  0.50684662  0.92448634  0.61492610    -0.93800
O1229       O  0.45357319  0.93135928  0.62223266    -0.92230
O1230       O  0.42080974  0.87528275  0.67933744    -0.92590
O1231       O  0.48671319  0.87206952  0.67739790    -0.91370
C1232       C  0.48494626  0.93430435  0.62379347     1.17690
H1233       H  0.38613020  0.87902303  0.62934622     0.33630
H1234       H  0.01600297  0.86673458  0.61496499     0.44480
H1235       H  0.46124633  0.92291717  0.56782323     0.38010
H1236       H  0.43497684  0.86289579  0.52301839     0.34490
H1237       H  0.47081259  0.83826705  0.66660644     0.26280
H1238       H  0.01268216  0.85834262  0.50823615     0.32220
H1239       H  0.46158937  0.89381174  0.47090691     0.38130
H1240       H  0.41889494  0.86520120  0.69051524     0.32580
H1241       H  0.39555761  0.91812301  0.66022246     0.31460
H1242       H  0.37071634  0.93425732  0.61753098     0.33140
H1243       H  0.44457722  0.92376888  0.49322104     0.32110
H1244       H  0.00580572  0.87779659  0.66935388     0.36110
H1245       H  0.03983686  0.90309912  0.64272315     0.28840
H1246       H  0.34723442  0.84813980  0.54091468     0.33080
H1247       H  0.40024008  0.90252316  0.48589009     0.35930
H1248       H  0.36592168  0.90855495  0.64702998     0.28540
H1249       H  0.06063324  0.89091129  0.62504201     0.41410
H1250       H  0.51691266  0.82994728  0.59148727     0.31460
H1251       H  0.48071559  0.83552319  0.63536698     0.39080
H1252       H  0.45387829  0.93096950  0.52250751     0.30930
H1253       H  0.50372531  0.83994884  0.51277347     0.30990
H1254       H  0.36279799  0.86150433  0.52156927     0.31260
Zr1255     Zr  0.26364237  0.86573217  0.55619869     2.17510
O1256       O  0.31101782  0.85828866  0.58470401    -0.51100
O1257       O  0.28101883  0.84371624  0.52515935    -0.74300
O1258       O  0.25579319  0.84503231  0.59105701    -0.81090
O1259       O  0.29715599  0.90898887  0.55422618    -0.82830
O1260       O  0.20968811  0.83441432  0.57351430    -0.78460
O1261       O  0.30969426  0.88305307  0.54523088    -0.90090
O1262       O  0.24813398  0.84404556  0.48674005    -0.76050
O1263       O  0.21824115  0.85310957  0.53335143    -0.85540
O1264       O  0.25695001  0.88033001  0.51329623    -0.85230
O1265       O  0.21867407  0.86947079  0.58855336    -0.71990
O1266       O  0.25409339  0.89390594  0.56860954    -0.84130
Zr1267     Zr  0.15643539  0.89874647  0.53511037     2.26420
Zr1268     Zr  0.17328652  0.85678095  0.56453728     2.06270
Zr1269     Zr  0.24641491  0.90866969  0.52577888     2.10050
Zr1270     Zr  0.21123890  0.86756561  0.49114313     1.78760
O1271       O  0.27263716  0.93540464  0.52748929    -0.92930
O1272       O  0.17668634  0.84537693  0.47384701    -0.40740
O1273       O  0.20078355  0.89582574  0.50277578    -0.77370
O1274       O  0.16471464  0.87076566  0.52130219    -0.96060
O1275       O  0.16437417  0.88438246  0.57741117    -0.89360
O1276       O  0.20166337  0.91219298  0.55727744    -0.92200
C1277       C  0.27129296  0.83788029  0.50160767     1.01550
C1278       C  0.31624156  0.89664489  0.55706674     1.14480
C1279       C  0.23141091  0.83542218  0.59251014     1.05260
O1280       O  0.14570472  0.83181729  0.54956975    -0.94360
O1281       O  0.11443840  0.85959207  0.56288781    -0.90100
O1282       O  0.10710710  0.88587045  0.54922945    -0.83250
C1283       C  0.09679919  0.87220301  0.55834746     1.11900
O1284       O  0.24885847  0.88741477  0.63401042    -0.96330
Zr1285     Zr  0.20968376  0.89735045  0.59946047     1.88940
O1286       O  0.13592731  0.91586006  0.57321191    -0.72980
O1287       O  0.15563290  0.85060611  0.61195040    -0.52240
O1288       O  0.19961819  0.90126640  0.64921844    -0.96920
O1289       O  0.22733971  0.92560635  0.60572269    -0.54140
O1290       O  0.15197696  0.89946209  0.60743759    -0.73500
C1291       C  0.13730338  0.91215870  0.59912439     0.98840
O1292       O  0.11380050  0.90244062  0.49975980    -0.62320
O1293       O  0.27528239  0.90774039  0.48135730    -0.57120
O1294       O  0.15729805  0.92493470  0.51329913    -0.93800
O1295       O  0.21116728  0.93159767  0.50858073    -0.92230
O1296       O  0.24580824  0.87410608  0.45146452    -0.92590
O1297       O  0.17834296  0.87505318  0.45065407    -0.91370
C1298       C  0.18010568  0.93461543  0.50587068     1.17690
H1299       H  0.27612924  0.87911280  0.50172016     0.33630
H1300       H  0.14532264  0.86660295  0.51202378     0.44480
H1301       H  0.19698331  0.92359579  0.56070154     0.38010
H1302       H  0.22158260  0.86481032  0.60682016     0.34490
H1303       H  0.18768686  0.84145106  0.45667068     0.26280
H1304       H  0.15461251  0.83853155  0.61259635     0.32220
H1305       H  0.19102133  0.91252514  0.65109335     0.38130
H1306       H  0.24475770  0.86428021  0.43929511     0.32580
H1307       H  0.27022084  0.91832263  0.47243908     0.31460
H1308       H  0.29294891  0.93420526  0.51644119     0.33140
H1309       H  0.24255973  0.92532744  0.62188841     0.32110
H1310       H  0.15749613  0.87910219  0.45861833     0.36110
H1311       H  0.12576878  0.90439831  0.48215320     0.28840
H1312       H  0.31390785  0.84630256  0.58316253     0.33080
H1313       H  0.27060252  0.88937430  0.62557305     0.35930
H1314       H  0.29877717  0.90849113  0.48648280     0.28540
H1315       H  0.10390837  0.89150106  0.49694463     0.41410
H1316       H  0.14438728  0.83262958  0.52898110     0.31460
H1317       H  0.17999403  0.83646437  0.48743388     0.39080
H1318       H  0.20774233  0.93142480  0.61276530     0.30930
H1319       H  0.17411394  0.85357800  0.62443390     0.30990
H1320       H  0.30517723  0.86049767  0.60444253     0.30940
Zr1321     Zr  0.22883170  0.24134197  0.24082625     2.17510
O1322       O  0.22948087  0.22964428  0.28763509    -0.51100
O1323       O  0.17796021  0.22493611  0.24307179    -0.74300
O1324       O  0.21109747  0.26002234  0.27712770    -0.81090
O1325       O  0.26433614  0.20414413  0.21221330    -0.82830
O1326       O  0.20724906  0.28561867  0.25956957    -0.78460
O1327       O  0.26565062  0.21955008  0.25104342    -0.90090
O1328       O  0.15150434  0.22621845  0.20136403    -0.76050
O1329       O  0.19222490  0.25786918  0.21465949    -0.85540
O1330       O  0.22192648  0.22707131  0.19748351    -0.85230
O1331       O  0.25742301  0.26718902  0.23721559    -0.71990
O1332       O  0.28315823  0.23900798  0.22114156    -0.84130
Zr1333     Zr  0.26758085  0.26727221  0.14625373     2.26420
Zr1334     Zr  0.22063855  0.28338470  0.20938648     2.06270
Zr1335     Zr  0.27577670  0.22510285  0.17728393     2.10050
Zr1336     Zr  0.18585002  0.24360441  0.17131964     1.78760
O1337       O  0.33283975  0.21796791  0.18585693    -0.92930
O1338       O  0.13244796  0.25687197  0.17274336    -0.40740
O1339       O  0.23922576  0.24157353  0.15011989    -0.77370
O1340       O  0.21291870  0.26959577  0.16538580    -0.96060
O1341       O  0.27436134  0.28131100  0.18947058    -0.89360
O1342       O  0.30399877  0.25064576  0.17225895    -0.92200
C1343       C  0.15402126  0.22105928  0.22664691     1.01550
C1344       C  0.26289619  0.20581684  0.23882871     1.14480
C1345       C  0.20513161  0.27528313  0.27961219     1.05260
O1346       O  0.16433854  0.28878503  0.19507073    -0.94360
O1347       O  0.24275539  0.30530399  0.18000611    -0.90100
O1348       O  0.24736797  0.29387978  0.13703469    -0.83250
C1349       C  0.24764853  0.30609554  0.15351457     1.11900
O1350       O  0.33045743  0.25885574  0.26255328    -0.96330
Zr1351     Zr  0.31057831  0.26485321  0.21560481     1.88940
O1352       O  0.32086504  0.28188573  0.14261634    -0.72980
O1353       O  0.21346092  0.31151230  0.22549004    -0.52240
O1354       O  0.31842959  0.29066125  0.24046883    -0.96920
O1355       O  0.36399088  0.25148989  0.21591617    -0.54140
O1356       O  0.34578341  0.28145322  0.18510078    -0.73500
C1357       C  0.34455718  0.28589057  0.15935730     0.98840
O1358       O  0.25270187  0.27550055  0.09889552    -0.62320
O1359       O  0.27105484  0.19841382  0.15471649    -0.57120
O1360       O  0.28711103  0.24900759  0.11039581    -0.93800
O1361       O  0.28752056  0.22307790  0.12699313    -0.92230
O1362       O  0.17778062  0.21858282  0.14428746    -0.92590
O1363       O  0.16394303  0.24921172  0.12495428    -0.91370
C1364       C  0.29106956  0.23362803  0.10743005     1.17690
H1365       H  0.21241155  0.21636083  0.19967964     0.33630
H1366       H  0.19950674  0.27621768  0.15323809     0.44480
H1367       H  0.32453351  0.24927124  0.16257838     0.38010
H1368       H  0.26156329  0.27203831  0.25532891     0.34490
H1369       H  0.11678103  0.24834967  0.16644270     0.26280
H1370       H  0.19150614  0.31198756  0.23417731     0.32220
H1371       H  0.34207277  0.29312561  0.23863083     0.38130
H1372       H  0.15392987  0.21643649  0.14519884     0.32580
H1373       H  0.28695337  0.19135260  0.16460939     0.31460
H1374       H  0.34262265  0.21715660  0.16700903     0.33140
H1375       H  0.37981342  0.26031509  0.22039646     0.32110
H1376       H  0.18343766  0.25186152  0.11361560     0.36110
H1377       H  0.27346798  0.27621871  0.08834814     0.28840
H1378       H  0.20691162  0.23081243  0.29485913     0.33080
H1379       H  0.34932269  0.26624854  0.26582353     0.35930
H1380       H  0.24924809  0.19424910  0.16020087     0.28540
H1381       H  0.24064950  0.26615610  0.09051298     0.41410
H1382       H  0.15148101  0.28783485  0.21247257     0.31460
H1383       H  0.12774168  0.25833843  0.19287886     0.39080
H1384       H  0.36849378  0.24867328  0.19616361     0.30930
H1385       H  0.22918987  0.31302205  0.24112195     0.30990
H1386       H  0.24309941  0.23702516  0.29937853     0.31260
Zr1387     Zr  0.01644909  0.23390499  0.74478510     2.17510
O1388       O  0.02481010  0.22266067  0.79134058    -0.51100
O1389       O  0.47459226  0.21183551  0.74503024    -0.74300
O1390       O  0.48863145  0.25025017  0.78051595    -0.81090
O1391       O  0.07403135  0.19981895  0.71228563    -0.82830
O1392       O  0.47185197  0.27406774  0.76081297    -0.78460
O1393       O  0.06771194  0.21979378  0.74211372    -0.90090
O1394       O  0.44848740  0.21218697  0.70300410    -0.76050
O1395       O  0.47664608  0.24802882  0.71785204    -0.85540
O1396       O  0.01573533  0.21966985  0.70077198    -0.85230
O1397       O  0.03628454  0.26172410  0.74194753    -0.71990
O1398       O  0.07036301  0.23595073  0.72428197    -0.84130
Zr1399     Zr  0.04937582  0.26236877  0.65033279     2.26420
Zr1400     Zr  0.49674414  0.27553574  0.71336636     2.06270
Zr1401     Zr  0.06970726  0.22169052  0.67974674     2.10050
Zr1402     Zr  0.47509986  0.23346121  0.67464992     1.78760
O1403       O  0.12878599  0.21832063  0.68425668    -0.92930
O1404       O  0.41851448  0.24255815  0.67911168    -0.40740
O1405       O  0.02838577  0.23517997  0.65329244    -0.77370
O1406       O  0.49452620  0.26118231  0.66933721    -0.96060
O1407       O  0.05046729  0.27672046  0.69373199    -0.89360
O1408       O  0.08999140  0.24893300  0.67706405    -0.92200
C1409       C  0.45287274  0.20629178  0.72763244     1.01550
C1410       C  0.06726559  0.20464567  0.73665718     1.14480
C1411       C  0.47315250  0.26390771  0.78140542     1.05260
O1412       O  0.44028450  0.28276396  0.70244250    -0.94360
O1413       O  0.50309605  0.29831775  0.67957898    -0.90100
O1414       O  0.03465224  0.28989820  0.64297578    -0.83250
C1415       C  0.51802088  0.30055199  0.65607016     1.11900
O1416       O  0.10846907  0.25977527  0.76921883    -0.96330
Zr1417     Zr  0.09016763  0.26321625  0.72102779     1.88940
O1418       O  0.10078348  0.27791650  0.64644236    -0.72980
O1419       O  0.00682121  0.30099630  0.73869755    -0.52240
O1420       O  0.09100749  0.29033311  0.74239374    -0.96920
O1421       O  0.14587800  0.25286524  0.72618002    -0.54140
O1422       O  0.12327583  0.27996230  0.68990895    -0.73500
C1423       C  0.12272558  0.28323327  0.66371614     0.98840
O1424       O  0.02533952  0.26752887  0.60434519    -0.62320
O1425       O  0.06219406  0.19538295  0.65635424    -0.57120
O1426       O  0.07376517  0.24617274  0.61333929    -0.93800
O1427       O  0.08173179  0.22055474  0.62991191    -0.92230
O1428       O  0.47336490  0.20925151  0.64481205    -0.92590
O1429       O  0.44989951  0.23887779  0.62944830    -0.91370
C1430       C  0.08160619  0.23111979  0.61027555     1.17690
H1431       H  0.01059949  0.20821730  0.70256208     0.33630
H1432       H  0.47973124  0.26689585  0.65699068     0.44480
H1433       H  0.11111796  0.24910786  0.66806872     0.38010
H1434       H  0.03743299  0.26670748  0.76028783     0.34490
H1435       H  0.40521572  0.23317540  0.67243809     0.26280
H1436       H  0.48486571  0.30490444  0.74437606     0.32220
H1437       H  0.11423088  0.29380982  0.74169655     0.38130
H1438       H  0.45048022  0.20530150  0.64599577     0.32580
H1439       H  0.08188513  0.18889688  0.66115382     0.31460
H1440       H  0.13515611  0.21194901  0.66748139     0.33140
H1441       H  0.15964810  0.26272696  0.72881899     0.32110
H1442       H  0.46843456  0.24191331  0.61727096     0.36110
H1443       H  0.01956401  0.25664011  0.59662766     0.28840
H1444       H  0.00260699  0.22107018  0.79911133     0.33080
H1445       H  0.12414058  0.26878120  0.77292839     0.35930
H1446       H  0.04394061  0.19000786  0.66627620     0.28540
H1447       H  0.50377051  0.27262644  0.60801558     0.41410
H1448       H  0.42692406  0.27492893  0.71317793     0.31460
H1449       H  0.41446397  0.24303671  0.69947861     0.39080
H1450       H  0.15184368  0.24869803  0.70742015     0.30930
H1451       H  0.01766707  0.29772474  0.75634001     0.30990
H1452       H  0.03453903  0.23165819  0.80257446     0.31260
Zr1453     Zr  0.15854014  0.23977238  0.39616695     2.17510
O1454       O  0.15980860  0.22826071  0.34895737    -0.51100
O1455       O  0.21010693  0.22374705  0.39388671    -0.74300
O1456       O  0.17447810  0.25923860  0.36082262    -0.81090
O1457       O  0.12690327  0.20168433  0.42363348    -0.82830
O1458       O  0.17813566  0.28463090  0.38005896    -0.78460
O1459       O  0.12170279  0.21782502  0.38663446    -0.90090
O1460       O  0.23577681  0.22538261  0.43595292    -0.76050
O1461       O  0.19306800  0.25717754  0.42321029    -0.85540
O1462       O  0.16606705  0.22545726  0.43907778    -0.85230
O1463       O  0.12751004  0.26489932  0.40077076    -0.71990
O1464       O  0.10425483  0.23598115  0.41535424    -0.84130
Zr1465     Zr  0.11596668  0.26400103  0.49115474     2.26420
Zr1466     Zr  0.16216288  0.28197019  0.42948432     2.06270
Zr1467     Zr  0.11213609  0.22207294  0.45885288     2.10050
Zr1468     Zr  0.20044876  0.24278556  0.46586209     1.78760
O1469       O  0.05480426  0.21498789  0.45115274    -0.92930
O1470       O  0.25240013  0.25735546  0.46331137    -0.40740
O1471       O  0.14710210  0.23922528  0.48645137    -0.77370
O1472       O  0.17048921  0.26803222  0.47281371    -0.96060
O1473       O  0.10872414  0.27813717  0.44858173    -0.89360
O1474       O  0.08128768  0.24675148  0.46426728    -0.92200
C1475       C  0.23386843  0.22004445  0.41056665     1.01550
C1476       C  0.12786141  0.20404053  0.39727280     1.14480
C1477       C  0.18029203  0.27456448  0.35935685     1.05260
O1478       O  0.21826959  0.28996343  0.44045657    -0.94360
O1479       O  0.14702082  0.30355930  0.46344701    -0.90100
O1480       O  0.12329917  0.29202581  0.50149997    -0.83250
C1481       C  0.13382074  0.30417913  0.48788951     1.11900
O1482       O  0.05512254  0.25342208  0.37477892    -0.96330
Zr1483     Zr  0.07427679  0.26107015  0.42142891     1.88940
O1484       O  0.06220095  0.27786803  0.49512877    -0.72980
O1485       O  0.15368976  0.30945523  0.41150967    -0.52240
O1486       O  0.06405710  0.28600270  0.39528574    -0.96920
O1487       O  0.02114241  0.24738342  0.42201407    -0.54140
O1488       O  0.03924998  0.27802891  0.45179795    -0.73500
C1489       C  0.03952274  0.28221235  0.47778719     0.98840
O1490       O  0.13736787  0.26877308  0.53829537    -0.62320
O1491       O  0.11207618  0.19481893  0.47904370    -0.57120
O1492       O  0.09330180  0.24578718  0.52500346    -0.93800
O1493       O  0.10743433  0.22036762  0.51006793    -0.92230
O1494       O  0.21107676  0.21854031  0.49366214    -0.92590
O1495       O  0.22244190  0.24946288  0.51193962    -0.91370
C1496       C  0.09808175  0.23057421  0.52902312     1.17690
H1497       H  0.17663079  0.21499189  0.43677860     0.33630
H1498       H  0.18279090  0.27499973  0.48543754     0.44480
H1499       H  0.06079121  0.24494064  0.47375228     0.38010
H1500       H  0.12333956  0.26980509  0.38283627     0.34490
H1501       H  0.26903338  0.24931399  0.46941256     0.26280
H1502       H  0.17518592  0.31295357  0.40413040     0.32220
H1503       H  0.04025431  0.28802609  0.39722811     0.38130
H1504       H  0.23503212  0.21680434  0.49234104     0.32580
H1505       H  0.09737699  0.18821255  0.46691365     0.31460
H1506       H  0.04614039  0.21293151  0.47009134     0.33140
H1507       H  0.00525528  0.25583951  0.41612033     0.32110
H1508       H  0.20298250  0.24997013  0.52418178     0.36110
H1509       H  0.14606042  0.25809181  0.54445473     0.28840
H1510       H  0.18221234  0.23024913  0.34191810     0.33080
H1511       H  0.03579472  0.26038387  0.37099318     0.35930
H1512       H  0.13430273  0.19043914  0.47552973     0.28540
H1513       H  0.15728726  0.27551531  0.53585542     0.41410
H1514       H  0.23014964  0.28869648  0.42258517     0.31460
H1515       H  0.25648249  0.25869012  0.44308386     0.39080
H1516       H  0.01614936  0.24560864  0.44197088     0.30930
H1517       H  0.13938522  0.30813052  0.39487065     0.30990
H1518       H  0.14529950  0.23522786  0.33745127     0.31260
Zr1519     Zr  0.37917932  0.23570367  0.89294616     2.17510
O1520       O  0.37128301  0.22413858  0.84622752    -0.51100
O1521       O  0.42012940  0.21343991  0.89314618    -0.74300
O1522       O  0.40791467  0.25103032  0.85708532    -0.81090
O1523       O  0.32443438  0.20198904  0.92490990    -0.82830
O1524       O  0.42454740  0.27507045  0.87654289    -0.78460
O1525       O  0.32890085  0.22093648  0.89335890    -0.90090
O1526       O  0.44570731  0.21376361  0.93544178    -0.76050
O1527       O  0.41946939  0.24950109  0.92021676    -0.85540
O1528       O  0.37927946  0.22195108  0.93708989    -0.85230
O1529       O  0.36026489  0.26367044  0.89550567    -0.71990
O1530       O  0.32494152  0.23815282  0.91280789    -0.84130
Zr1531     Zr  0.34677598  0.26546389  0.98737615     2.26420
Zr1532     Zr  0.40033143  0.27715477  0.92436180     2.06270
Zr1533     Zr  0.32525458  0.22446772  0.95746879     2.10050
Zr1534     Zr  0.42000299  0.23549019  0.96367618     1.78760
O1535       O  0.26650838  0.22096819  0.95059715    -0.92930
O1536       O  0.47708603  0.24388967  0.95984521    -0.40740
O1537       O  0.36661671  0.23794676  0.98476031    -0.77370
O1538       O  0.40194170  0.26338910  0.96871346    -0.96060
O1539       O  0.34615961  0.27927577  0.94367070    -0.89360
O1540       O  0.30595180  0.25199843  0.96031421    -0.92200
C1541       C  0.44120007  0.20777612  0.91076468     1.01550
C1542       C  0.33093981  0.20608781  0.90013887     1.14480
C1543       C  0.42345525  0.26462976  0.85608741     1.05260
O1544       O  0.45619139  0.28244766  0.94010764    -0.94360
O1545       O  0.38600269  0.30065025  0.95477070    -0.90100
O1546       O  0.37812496  0.28939506  0.99711851    -0.83250
C1547       C  0.38064954  0.30166672  0.98125435     1.11900
O1548       O  0.28945755  0.26322473  0.86738964    -0.96330
Zr1549     Zr  0.30628332  0.26570918  0.91620453     1.88940
O1550       O  0.29516925  0.28123815  0.98984213    -0.72980
O1551       O  0.40234034  0.30345394  0.90083985    -0.52240
O1552       O  0.30633427  0.29321927  0.89709202    -0.96920
O1553       O  0.25113457  0.25494467  0.90909147    -0.54140
O1554       O  0.27104810  0.28181515  0.94699829    -0.73500
C1555       C  0.27206548  0.28564757  0.97303753     0.98840
O1556       O  0.35443920  0.27699628  0.03419262    -0.62320
O1557       O  0.33066202  0.19852361  0.98175490    -0.57120
O1558       O  0.32882545  0.24769867  0.02485445    -0.93800
O1559       O  0.31078868  0.22362772  0.00678970    -0.92230
O1560       O  0.42025760  0.21139867  0.99320869    -0.92590
O1561       O  0.44494864  0.24086657  0.00914026    -0.91370
C1562       C  0.31598716  0.23350565  0.02724098     1.17690
H1563       H  0.38415379  0.21044953  0.93552637     0.33630
H1564       H  0.41743066  0.26884731  0.98093042     0.44480
H1565       H  0.28474424  0.25227249  0.96916698     0.38010
H1566       H  0.35949098  0.26851793  0.87717753     0.34490
H1567       H  0.48984487  0.23429932  0.96613959     0.26280
H1568       H  0.42553044  0.30499889  0.89546839     0.32220
H1569       H  0.28307972  0.29666422  0.89723969     0.38130
H1570       H  0.44298913  0.20721326  0.99224182     0.32580
H1571       H  0.31177320  0.19182484  0.97544826     0.31460
H1572       H  0.26011290  0.21274183  0.96461226     0.33140
H1573       H  0.23714828  0.26469929  0.90644068     0.32110
H1574       H  0.42669678  0.24495023  0.02081980     0.36110
H1575       H  0.33259816  0.27690043  0.04312058     0.28840
H1576       H  0.39352562  0.22214412  0.83877011     0.33080
H1577       H  0.27372034  0.27222685  0.86417158     0.35930
H1578       H  0.35010190  0.19316135  0.97345813     0.28540
H1579       H  0.36774427  0.26897879  0.04470601     0.41410
H1580       H  0.47013100  0.27726820  0.92567383     0.31460
H1581       H  0.48127570  0.24445100  0.93951845     0.39080
H1582       H  0.24463505  0.25066828  0.92753955     0.30930
H1583       H  0.39035132  0.30182146  0.88299446     0.30990
H1584       H  0.36220367  0.23310435  0.83477660     0.31260
Zr1585     Zr  0.22164815  0.01351038  0.89559899     2.17510
O1586       O  0.22364992  0.02537973  0.84902796    -0.51100
O1587       O  0.17217544  0.03070348  0.89217129    -0.74300
O1588       O  0.20355483  0.99462971  0.85919428    -0.81090
O1589       O  0.26355986  0.04917665  0.92490943    -0.82830
O1590       O  0.19042301  0.97000583  0.87769085    -0.78460
O1591       O  0.26193254  0.03384403  0.88597389    -0.90090
O1592       O  0.14494929  0.03045577  0.93337132    -0.76050
O1593       O  0.18149267  0.99933959  0.92153340    -0.85540
O1594       O  0.21735465  0.02828315  0.93871773    -0.85230
O1595       O  0.24481231  0.98656159  0.90024029    -0.71990
O1596       O  0.27600340  0.01334164  0.91616558    -0.84130
Zr1597     Zr  0.25368822  0.98626982  0.99067552     2.26420
Zr1598     Zr  0.20419755  0.97253230  0.92707146     2.06270
Zr1599     Zr  0.27124827  0.02771409  0.95981437     2.10050
Zr1600     Zr  0.17807125  0.01384272  0.96484583     1.78760
O1601       O  0.32940496  0.03216998  0.95166527    -0.92930
O1602       O  0.12383007  0.00144804  0.96622713    -0.40740
O1603       O  0.23136878  0.01331644  0.98649105    -0.77370
O1604       O  0.19937712  0.98687327  0.97078877    -0.96060
O1605       O  0.25767123  0.97180259  0.94788114    -0.89360
O1606       O  0.29373769  0.00088806  0.96530534    -0.92200
C1607       C  0.14818952  0.03501775  0.90796121     1.01550
C1608       C  0.26155209  0.04762112  0.89826861     1.14480
C1609       C  0.19350980  0.97983101  0.85716146     1.05260
O1610       O  0.14576355  0.96646569  0.92601693    -0.94360
O1611       O  0.19525700  0.95269418  0.96358045    -0.90100
O1612       O  0.22791317  0.96093062  0.99978324    -0.83250
C1613       C  0.20738531  0.95132233  0.98817909     1.11900
O1614       O  0.32203644  0.99419873  0.87801157    -0.96330
Zr1615     Zr  0.29776632  0.98624209  0.92236053     1.88940
O1616       O  0.29875229  0.96618770  0.99388290    -0.72980
O1617       O  0.22027016  0.94538880  0.91112539    -0.52240
O1618       O  0.30228520  0.96229295  0.89206413    -0.96920
O1619       O  0.35478470  0.99461053  0.92877342    -0.54140
O1620       O  0.32276924  0.96485075  0.95122102    -0.73500
C1621       C  0.31942475  0.95993875  0.97651300     0.98840
O1622       O  0.23407820  0.98446556  0.03883388    -0.62320
O1623       O  0.27202562  0.05438770  0.98276273    -0.57120
O1624       O  0.28421069  0.00155600  0.02494049    -0.93800
O1625       O  0.28335226  0.02797745  0.01049838    -0.92230
O1626       O  0.17366170  0.04028122  0.98820920    -0.92590
O1627       O  0.15667289  0.01129799  0.01201202    -0.91370
C1628       C  0.28838805  0.01685292  0.02899147     1.17690
H1629       H  0.20960975  0.03931083  0.93603980     0.33630
H1630       H  0.18409356  0.98138968  0.98285978     0.44480
H1631       H  0.31432420  0.00118300  0.97532237     0.38010
H1632       H  0.24853749  0.98130148  0.88244499     0.34490
H1633       H  0.10874139  0.01064538  0.97014800     0.26280
H1634       H  0.20016401  0.94063423  0.90271998     0.32220
H1635       H  0.32486299  0.95821862  0.89506573     0.38130
H1636       H  0.15001731  0.04296866  0.98750308     0.32580
H1637       H  0.28911906  0.06069329  0.97294344     0.31460
H1638       H  0.33937032  0.03230939  0.97057160     0.33140
H1639       H  0.36777675  0.98579933  0.91988217     0.32110
H1640       H  0.17383261  0.00523934  0.02230644     0.36110
H1641       H  0.22928009  0.99584433  0.04467911     0.28840
H1642       H  0.20099546  0.02461264  0.84167227     0.33080
H1643       H  0.33976261  0.98623915  0.87425829     0.35930
H1644       H  0.25108090  0.05960603  0.97732574     0.28540
H1645       H  0.21208624  0.97938341  0.03777482     0.41410
H1646       H  0.13641019  0.97407430  0.91211443     0.31460
H1647       H  0.11900454  0.99833086  0.94660947     0.39080
H1648       H  0.35947324  0.99342599  0.94895942     0.30930
H1649       H  0.23499688  0.94732548  0.89510935     0.30990
H1650       H  0.23659968  0.01770824  0.83740580     0.31260
Zr1651     Zr  0.38094442  0.01977000  0.24438228     2.17510
O1652       O  0.37136016  0.03146258  0.29068069    -0.51100
O1653       O  0.41921072  0.04320798  0.24519795    -0.74300
O1654       O  0.41022306  0.00494739  0.28106085    -0.81090
O1655       O  0.32308494  0.05058422  0.21065089    -0.82830
O1656       O  0.43327394  0.98218354  0.26200508    -0.78460
O1657       O  0.32890401  0.03311828  0.24486576    -0.90090
O1658       O  0.44595658  0.04387204  0.20368659    -0.76050
O1659       O  0.42483011  0.00833193  0.21846706    -0.85540
O1660       O  0.37951383  0.03330675  0.20007555    -0.85230
O1661       O  0.36790916  0.99103905  0.24132765    -0.71990
O1662       O  0.32783197  0.01430530  0.22332722    -0.84130
Zr1663     Zr  0.35816861  0.98848452  0.14942373     2.26420
Zr1664     Zr  0.41175116  0.97988073  0.21416896     2.06270
Zr1665     Zr  0.32655621  0.02784152  0.17870859     2.10050
Zr1666     Zr  0.42350899  0.02190512  0.17464617     1.78760
O1667       O  0.26751955  0.02713286  0.18571096    -0.92930
O1668       O  0.48161911  0.01546535  0.17874215    -0.40740
O1669       O  0.37127950  0.01687950  0.15273999    -0.77370
O1670       O  0.41157171  0.99335866  0.16970435    -0.96060
O1671       O  0.35953127  0.97471041  0.19292896    -0.89360
O1672       O  0.31360038  0.99943856  0.17489563    -0.92200
C1673       C  0.44016811  0.04947934  0.22827128     1.01550
C1674       C  0.32822756  0.04768891  0.23625568     1.14480
C1675       C  0.42834525  0.99214704  0.28246844     1.05260
O1676       O  0.47068658  0.97619149  0.20963857    -0.94360
O1677       O  0.42083685  0.95824357  0.17987853    -0.90100
O1678       O  0.38751169  0.96389338  0.14280798    -0.83250
C1679       C  0.40860522  0.95529313  0.15559984     1.11900
O1680       O  0.29066278  0.99112776  0.26420949    -0.96330
Zr1681     Zr  0.31568498  0.98574300  0.21887769     1.88940
O1682       O  0.31711511  0.96662972  0.14579723    -0.72980
O1683       O  0.40266863  0.95377992  0.23701516    -0.52240
O1684       O  0.32080416  0.96118183  0.24702934    -0.96920
O1685       O  0.25650979  0.98985668  0.21615735    -0.54140
O1686       O  0.29579162  0.96324622  0.18917065    -0.73500
C1687       C  0.29910285  0.95898344  0.16342299     0.98840
O1688       O  0.38128373  0.98592511  0.10250282    -0.62320
O1689       O  0.32040777  0.05361618  0.15401781    -0.57120
O1690       O  0.32725518  0.00190458  0.11271303    -0.93800
O1691       O  0.31530845  0.02744679  0.12851264    -0.92230
O1692       O  0.42047594  0.04644433  0.14632910    -0.92590
O1693       O  0.44891488  0.01795466  0.12918232    -0.91370
C1694       C  0.31665307  0.01649120  0.10922502     1.17690
H1695       H  0.38248584  0.04497219  0.20176697     0.33630
H1696       H  0.42820088  0.98859035  0.15789393     0.44480
H1697       H  0.29317874  0.99765674  0.16505338     0.38010
H1698       H  0.36733158  0.98617417  0.25963464     0.34490
H1699       H  0.49301621  0.02538588  0.17214760     0.26280
H1700       H  0.42476272  0.95012529  0.24288565     0.32220
H1701       H  0.29959204  0.95543923  0.24470004     0.38130
H1702       H  0.44284998  0.05111994  0.14707787     0.32580
H1703       H  0.30052784  0.05881486  0.16184593     0.31460
H1704       H  0.25818722  0.03123704  0.16796879     0.33140
H1705       H  0.24694225  0.97933688  0.22214109     0.32110
H1706       H  0.43076412  0.01433233  0.11681000     0.36110
H1707       H  0.38349382  0.99723352  0.09555547     0.28840
H1708       H  0.39332665  0.03380112  0.29863645     0.33080
H1709       H  0.27708174  0.98143040  0.26837935     0.35930
H1710       H  0.33886786  0.06053903  0.16054852     0.28540
H1711       H  0.40429845  0.98241663  0.10515295     0.41410
H1712       H  0.48042976  0.98569386  0.21954427     0.31460
H1713       H  0.48608801  0.01527842  0.19908720     0.39080
H1714       H  0.25120657  0.99042491  0.19599557     0.30930
H1715       H  0.39134662  0.95653204  0.25467977     0.30990
H1716       H  0.36258819  0.02240462  0.30202598     0.31260
Zr1717     Zr  0.15910563  0.01463038  0.73977885     2.17510
O1718       O  0.16088999  0.02590226  0.78713846    -0.51100
O1719       O  0.21081818  0.03049297  0.74264297    -0.74300
O1720       O  0.17405724  0.99502234  0.77495776    -0.81090
O1721       O  0.12774133  0.05265511  0.71284647    -0.82830
O1722       O  0.17469347  0.96944614  0.75630897    -0.78460
O1723       O  0.12402019  0.03700831  0.75073146    -0.90090
O1724       O  0.23648168  0.02926520  0.70075931    -0.76050
O1725       O  0.19433705  0.99749785  0.71320922    -0.85540
O1726       O  0.16691189  0.02905032  0.69724314    -0.85230
O1727       O  0.12820496  0.98945809  0.73448899    -0.71990
O1728       O  0.10462192  0.01813208  0.72052937    -0.84130
Zr1729     Zr  0.11779385  0.99038925  0.64404772     2.26420
Zr1730     Zr  0.16371575  0.97269704  0.70625113     2.06270
Zr1731     Zr  0.11289777  0.03221072  0.67752587     2.10050
Zr1732     Zr  0.20155673  0.01187215  0.67056101     1.78760
O1733       O  0.05515598  0.03841993  0.68462674    -0.92930
O1734       O  0.25407788  0.99783308  0.67358823    -0.40740
O1735       O  0.14815182  0.01533792  0.64988466    -0.77370
O1736       O  0.17226170  0.98648610  0.66293910    -0.96060
O1737       O  0.11035860  0.97615309  0.68641000    -0.89360
O1738       O  0.08261036  0.00741128  0.67064187    -0.92200
C1739       C  0.23446345  0.03439158  0.72619587     1.01550
C1740       C  0.12873969  0.05072689  0.73934151     1.14480
C1741       C  0.17743026  0.97956440  0.77679411     1.05260
O1742       O  0.22053717  0.96702230  0.69433379    -0.94360
O1743       O  0.14379652  0.95088308  0.67497451    -0.90100
O1744       O  0.12556341  0.96220427  0.63449649    -0.83250
C1745       C  0.13268358  0.95007178  0.64978689     1.11900
O1746       O  0.05463681  0.00012497  0.75929531    -0.96330
Zr1747     Zr  0.07517839  0.99289356  0.71306407     1.88940
O1748       O  0.06442694  0.97628800  0.63883539    -0.72980
O1749       O  0.16728499  0.94422782  0.72079401    -0.52240
O1750       O  0.06570417  0.96784142  0.73902327    -0.96920
O1751       O  0.02160290  0.00607914  0.71107639    -0.54140
O1752       O  0.04141921  0.97551832  0.68191961    -0.73500
C1753       C  0.04195726  0.97152578  0.65584060     0.98840
O1754       O  0.13894299  0.98561365  0.59702393    -0.62320
O1755       O  0.10979645  0.05959363  0.65800632    -0.57120
O1756       O  0.09597982  0.00929172  0.61065647    -0.93800
O1757       O  0.11048284  0.03448783  0.62667693    -0.92230
O1758       O  0.21176177  0.03618842  0.64291344    -0.92590
O1759       O  0.22351814  0.00527619  0.62463275    -0.91370
C1760       C  0.10128893  0.02453340  0.60731312     1.17690
H1761       H  0.17731699  0.03955243  0.69973520     0.33630
H1762       H  0.18469208  0.97955881  0.65045992     0.44480
H1763       H  0.06223019  0.00920403  0.66079915     0.38010
H1764       H  0.12321678  0.98461327  0.75226520     0.34490
H1765       H  0.27031442  0.00590626  0.66698163     0.26280
H1766       H  0.18886550  0.94303697  0.73011363     0.32220
H1767       H  0.04211844  0.96542154  0.73633218     0.38130
H1768       H  0.23570490  0.03799978  0.64436508     0.32580
H1769       H  0.09529508  0.06584464  0.67070461     0.31460
H1770       H  0.04652007  0.04060206  0.66564758     0.33140
H1771       H  0.00593503  0.99754197  0.71694788     0.32110
H1772       H  0.20405976  0.00482318  0.61221419     0.36110
H1773       H  0.14783896  0.99626631  0.59098666     0.28840
H1774       H  0.18337205  0.02382054  0.79408394     0.33080
H1775       H  0.03544140  0.99298515  0.76245809     0.35930
H1776       H  0.13186519  0.06435370  0.66096710     0.28540
H1777       H  0.15871526  0.97876625  0.59956963     0.41410
H1778       H  0.23219575  0.96689978  0.71252556     0.31460
H1779       H  0.25859528  0.99689922  0.69385753     0.39080
H1780       H  0.01680136  0.00758527  0.69097612     0.30930
H1781       H  0.15090126  0.94293689  0.73581129     0.30990
H1782       H  0.14644364  0.01893525  0.79859193     0.31260
Zr1783     Zr  0.02039730  0.02210816  0.39321788     2.17510
O1784       O  0.02696768  0.03343944  0.34656048    -0.51100
O1785       O  0.47801144  0.04388167  0.39300586    -0.74300
O1786       O  0.49259871  0.00580568  0.35777697    -0.81090
O1787       O  0.07495374  0.05629657  0.42537161    -0.82830
O1788       O  0.47495974  0.98221591  0.37757259    -0.78460
O1789       O  0.07079539  0.03690741  0.39402977    -0.90090
O1790       O  0.45213195  0.04329469  0.43489499    -0.76050
O1791       O  0.48078301  0.00792740  0.41990934    -0.85540
O1792       O  0.01982277  0.03617913  0.43726646    -0.85230
O1793       O  0.04028859  0.99429702  0.39580686    -0.71990
O1794       O  0.07495056  0.02003135  0.41290676    -0.84130
Zr1795     Zr  0.05408559  0.99320987  0.48711665     2.26420
Zr1796     Zr  0.50094845  0.98047651  0.42422055     2.06270
Zr1797     Zr  0.07428803  0.03405111  0.45747638     2.10050
Zr1798     Zr  0.47958330  0.02222882  0.46329469     1.78760
O1799       O  0.13319048  0.03696418  0.45130052    -0.92930
O1800       O  0.42317512  0.01272609  0.45895615    -0.40740
O1801       O  0.03336101  0.02046632  0.48407507    -0.77370
O1802       O  0.49894688  0.99448676  0.46846598    -0.96060
O1803       O  0.05488745  0.97909984  0.44362219    -0.89360
O1804       O  0.09448521  0.00678559  0.46056900    -0.92200
C1805       C  0.45622534  0.04923598  0.41030210     1.01550
C1806       C  0.06908920  0.05187357  0.40053392     1.14480
C1807       C  0.47658279  0.99235025  0.35711710     1.05260
O1808       O  0.44493188  0.97331236  0.43641462    -0.94360
O1809       O  0.50893485  0.95717726  0.45604304    -0.90100
O1810       O  0.03958823  0.96546469  0.49352827    -0.83250
C1811       C  0.52380033  0.95477752  0.47954237     1.11900
O1812       O  0.11272834  0.99608679  0.36856482    -0.96330
Zr1813     Zr  0.09444587  0.99262033  0.41659475     1.88940
O1814       O  0.10516837  0.97748460  0.49122542    -0.72980
O1815       O  0.00903227  0.95513025  0.39809318    -0.52240
O1816       O  0.09446917  0.96567901  0.39456179    -0.96920
O1817       O  0.15049105  0.00261870  0.41240119    -0.54140
O1818       O  0.12713069  0.97538286  0.44776892    -0.73500
C1819       C  0.12673242  0.97202348  0.47395723     0.98840
O1820       O  0.03102653  0.98783709  0.53317166    -0.62320
O1821       O  0.07182574  0.06030165  0.48178636    -0.57120
O1822       O  0.07901552  0.00953719  0.52367066    -0.93800
O1823       O  0.08605237  0.03524061  0.50714591    -0.92230
O1824       O  0.47789858  0.04643827  0.49311302    -0.92590
O1825       O  0.45531316  0.01691672  0.50869355    -0.91370
C1826       C  0.08642894  0.02464478  0.52664768     1.17690
H1827       H  0.01446156  0.04761619  0.43564418     0.33630
H1828       H  0.48431966  0.98868818  0.48072371     0.44480
H1829       H  0.11565939  0.00658395  0.46966546     0.38010
H1830       H  0.04117660  0.98934997  0.37743674     0.34490
H1831       H  0.40972632  0.02200618  0.46568718     0.26280
H1832       H  0.48674895  0.95147374  0.39265211     0.32220
H1833       H  0.11750445  0.96193803  0.39570935     0.38130
H1834       H  0.45501775  0.05038423  0.49174173     0.32580
H1835       H  0.09098155  0.06657760  0.47514381     0.31460
H1836       H  0.14184200  0.03900829  0.47037208     0.33140
H1837       H  0.16388206  0.99270680  0.40913705     0.32110
H1838       H  0.47390078  0.01329535  0.52048192     0.36110
H1839       H  0.02506599  0.99868115  0.54090787     0.28840
H1840       H  0.00451248  0.03483746  0.33902085     0.33080
H1841       H  0.12855213  0.98715025  0.36502965     0.35930
H1842       H  0.05248421  0.06596705  0.47389603     0.28540
H1843       H  0.50957347  0.98255585  0.52954775     0.41410
H1844       H  0.43110540  0.98047525  0.42467186     0.31460
H1845       H  0.41881316  0.01223155  0.43860025     0.39080
H1846       H  0.15672741  0.00628058  0.43145185     0.30930
H1847       H  0.01949990  0.95841024  0.38037938     0.30990
H1848       H  0.03676385  0.02456935  0.33516855     0.31260
Zr1849     Zr  0.01372871  0.11522958  0.30909577     2.17510
O1850       O  0.47751661  0.10838277  0.34747941    -0.51100
O1851       O  0.48832542  0.09492661  0.27853795    -0.74300
O1852       O  0.46652421  0.13225295  0.30093380    -0.81090
O1853       O  0.07055471  0.08184761  0.32625491    -0.82830
O1854       O  0.47846418  0.15872405  0.30745802    -0.78460
O1855       O  0.02308223  0.09338520  0.34116223    -0.90090
O1856       O  0.01415593  0.09672127  0.23672348    -0.76050
O1857       O  0.01648132  0.13162290  0.26816338    -0.85540
O1858       O  0.05439606  0.10213329  0.28151193    -0.85230
O1859       O  0.02747321  0.14230866  0.32514656    -0.71990
O1860       O  0.06260072  0.11547402  0.33651454    -0.84130
Zr1861     Zr  0.12118967  0.14622986  0.28471406     2.26420
Zr1862     Zr  0.03210272  0.15882758  0.28321364     2.06270
Zr1863     Zr  0.10379269  0.10336041  0.30779111     2.10050
Zr1864     Zr  0.05700378  0.11819750  0.24082715     1.78760
O1865       O  0.12806759  0.08913391  0.34735134    -0.92930
O1866       O  0.01999025  0.12789740  0.20449184    -0.40740
O1867       O  0.10808719  0.11946981  0.26661216    -0.77370
O1868       O  0.07304328  0.14551796  0.25527924    -0.96060
O1869       O  0.07978210  0.15892119  0.31225185    -0.89360
O1870       O  0.11609040  0.12979453  0.32534474    -0.92200
C1871       C  0.99286678  0.09026813  0.25321609     1.01550
C1872       C  0.04532563  0.08246092  0.34183765     1.14480
C1873       C  0.46026851  0.14614751  0.31181629     1.05260
O1874       O  0.00047042  0.16163844  0.24027136    -0.94360
O1875       O  0.06866232  0.18128389  0.26466145    -0.90100
O1876       O  0.12146142  0.17237588  0.26233436    -0.83250
C1877       C  0.09949243  0.18325020  0.25846809     1.11900
O1878       O  0.03725697  0.13792798  0.39117603    -0.96330
Zr1879     Zr  0.07528700  0.14218360  0.35274615     1.88940
O1880       O  0.13674456  0.16694885  0.31947768    -0.72980
O1881       O  0.01493467  0.18657293  0.29468032    -0.52240
O1882       O  0.06087664  0.16932629  0.36988397    -0.96920
O1883       O  0.09661329  0.12920579  0.39470272    -0.54140
O1884       O  0.12821025  0.15392684  0.35987349    -0.73500
C1885       C  0.13754770  0.16622771  0.34622383     0.98840
O1886       O  0.16353127  0.14873755  0.24919403    -0.62320
O1887       O  0.12245533  0.08242177  0.27518298    -0.57120
O1888       O  0.17125306  0.13335615  0.29967232    -0.93800
O1889       O  0.16273831  0.10673108  0.31112437    -0.92230
O1890       O  0.08622760  0.09517263  0.22025298    -0.92590
O1891       O  0.08552162  0.12527275  0.19803922    -0.91370
C1892       C  0.18074830  0.11947133  0.30897102     1.17690
H1893       H  0.04991651  0.09077225  0.27754947     0.33630
H1894       H  0.07689436  0.15183205  0.23864645     0.44480
H1895       H  0.13482517  0.12903610  0.33754599     0.38010
H1896       H  0.51190895  0.14608925  0.33879437     0.34490
H1897       H  0.01862280  0.11874734  0.19087724     0.26280
H1898       H  0.49280972  0.18772052  0.28633557     0.32220
H1899       H  0.07183308  0.17020831  0.38834112     0.38130
H1900       H  0.07089651  0.09058117  0.20614396     0.32580
H1901       H  0.14081740  0.07696823  0.28497338     0.31460
H1902       H  0.13719535  0.07892292  0.33936475     0.33140
H1903       H  0.10577688  0.13826941  0.40612915     0.32110
H1904       H  0.10737537  0.12906817  0.20442150     0.36110
H1905       H  0.17215070  0.13753405  0.24649311     0.28840
H1906       H  0.45567239  0.10665762  0.33915876     0.33080
H1907       H  0.01987093  0.14624188  0.38883458     0.35930
H1908       H  0.10468189  0.07418316  0.27491710     0.28540
H1909       H  0.15143893  0.15092790  0.23162796     0.41410
H1910       H  0.47777197  0.15878546  0.24559547     0.31460
H1911       H  0.99812532  0.12816427  0.21335125     0.39080
H1912       H  0.11600458  0.12297602  0.38831349     0.30930
H1913       H  0.51129701  0.18658737  0.31512036     0.30990
H1914       H  0.47583272  0.11849905  0.35883347     0.31260
Zr1915     Zr  0.38013861  0.14063627  0.80855835     2.17510
O1916       O  0.41719890  0.14215023  0.84876499    -0.51100
O1917       O  0.40406538  0.16110110  0.77768698    -0.74300
O1918       O  0.42261738  0.12266328  0.79112688    -0.81090
O1919       O  0.32170634  0.17049114  0.83886874    -0.82830
O1920       O  0.41430426  0.09638759  0.79984048    -0.78460
O1921       O  0.37645628  0.16552275  0.83557382    -0.90090
O1922       O  0.37321778  0.16027636  0.73803412    -0.76050
O1923       O  0.37316361  0.12467292  0.76684371    -0.85540
O1924       O  0.33617676  0.15371037  0.78480430    -0.85230
O1925       O  0.36738377  0.11312037  0.82263270    -0.71990
O1926       O  0.33371117  0.13956813  0.83866906    -0.84130
Zr1927     Zr  0.27052920  0.10876599  0.78848952     2.26420
Zr1928     Zr  0.35871401  0.09699301  0.78000042     2.06270
Zr1929     Zr  0.28909422  0.15130973  0.81341853     2.10050
Zr1930     Zr  0.33043415  0.13848215  0.74299855     1.78760
O1931       O  0.26325470  0.16581100  0.85210551    -0.92930
O1932       O  0.36440887  0.12907990  0.70439120    -0.40740
O1933       O  0.28169335  0.13588362  0.77145070    -0.77370
O1934       O  0.31532078  0.11074324  0.75587486    -0.96060
O1935       O  0.31472546  0.09618428  0.81244828    -0.89360
O1936       O  0.27869645  0.12456418  0.82984472    -0.92200
C1937       C  0.39678029  0.16632838  0.75318228     1.01550
C1938       C  0.35165524  0.17342948  0.84459715     1.14480
C1939       C  0.43120075  0.10944458  0.80307302     1.05260
O1940       O  0.38588221  0.09454093  0.73501160    -0.94360
O1941       O  0.32132303  0.07456840  0.76189414    -0.90100
O1942       O  0.26821877  0.08283742  0.76469839    -0.83250
C1943       C  0.29000471  0.07231487  0.75811110     1.11900
O1944       O  0.36647670  0.11550417  0.88850532    -0.96330
Zr1945     Zr  0.32306605  0.11250481  0.85358502     1.88940
O1946       O  0.25926675  0.08756754  0.82344419    -0.72980
O1947       O  0.37593527  0.06914098  0.79013845    -0.52240
O1948       O  0.34041910  0.08542747  0.86845496    -0.96920
O1949       O  0.30519627  0.12606139  0.89637705    -0.54140
O1950       O  0.27293290  0.09926054  0.86463192    -0.73500
C1951       C  0.26133609  0.08754241  0.85027268     0.98840
O1952       O  0.22501235  0.10619582  0.75545187    -0.62320
O1953       O  0.27256062  0.17351541  0.78289302    -0.57120
O1954       O  0.22153197  0.12117267  0.80649628    -0.93800
O1955       O  0.23054950  0.14775360  0.81843402    -0.92230
O1956       O  0.29936507  0.16179433  0.72596424    -0.92590
O1957       O  0.29859502  0.13253705  0.70098498    -0.91370
C1958       C  0.21244402  0.13504762  0.81633817     1.17690
H1959       H  0.34027640  0.16515789  0.78159390     0.33630
H1960       H  0.30988933  0.10476057  0.73899649     0.44480
H1961       H  0.26088994  0.12472502  0.84298126     0.38010
H1962       H  0.38430247  0.10899363  0.83478793     0.34490
H1963       H  0.36468571  0.13833736  0.69119442     0.26280
H1964       H  0.39690460  0.06763266  0.78012658     0.32220
H1965       H  0.32803856  0.08335965  0.88581316     0.38130
H1966       H  0.31367906  0.16688159  0.71183166     0.32580
H1967       H  0.25015496  0.17640258  0.78903864     0.31460
H1968       H  0.25524825  0.17618137  0.84403919     0.33140
H1969       H  0.29682215  0.11717323  0.90831165     0.32110
H1970       H  0.27770060  0.12801711  0.70798392     0.36110
H1971       H  0.21578622  0.11733512  0.75382284     0.28840
H1972       H  0.42749257  0.15309504  0.84908255     0.33080
H1973       H  0.36000750  0.10851689  0.90434804     0.35930
H1974       H  0.28623753  0.18289792  0.78897239     0.28540
H1975       H  0.23546071  0.10425554  0.73709369     0.41410
H1976       H  0.40877452  0.09796090  0.73875479     0.31460
H1977       H  0.38695826  0.12874880  0.71209615     0.39080
H1978       H  0.28542706  0.13228706  0.89087887     0.30930
H1979       H  0.38192768  0.06921394  0.81021485     0.30990
H1980       H  0.40288112  0.14197598  0.86539734     0.31260
Zr1981     Zr  0.38106205  0.11411255  0.32847508     2.17510
O1982       O  0.42481842  0.10842373  0.29536169    -0.51100
O1983       O  0.40459157  0.09336860  0.35926936    -0.74300
O1984       O  0.42445873  0.13298184  0.34245874    -0.81090
O1985       O  0.32314224  0.08065052  0.30982199    -0.82830
O1986       O  0.41437941  0.15924335  0.33457036    -0.78460
O1987       O  0.36910859  0.09284349  0.29403099    -0.90090
O1988       O  0.37648170  0.09521633  0.40002884    -0.76050
O1989       O  0.37497406  0.13047617  0.36985065    -0.85540
O1990       O  0.33819365  0.10110425  0.35347953    -0.85230
O1991       O  0.36775865  0.14152837  0.31387977    -0.71990
O1992       O  0.33373928  0.11485377  0.29890954    -0.84130
Zr1993     Zr  0.27163758  0.14564988  0.34916692     2.26420
Zr1994     Zr  0.35977976  0.15802663  0.35625557     2.06270
Zr1995     Zr  0.29003985  0.10296295  0.32519160     2.10050
Zr1996     Zr  0.33322765  0.11673716  0.39477997     1.78760
O1997       O  0.26912061  0.08920545  0.28343819    -0.92930
O1998       O  0.36787870  0.12647145  0.43300504    -0.40740
O1999       O  0.28366190  0.11875992  0.36682668    -0.77370
O2000       O  0.31736040  0.14427438  0.38129867    -0.96060
O2001       O  0.31484632  0.15838058  0.32438919    -0.89360
O2002       O  0.27943146  0.12955525  0.30815511    -0.92200
C2003       C  0.39886887  0.08871548  0.38436112     1.01550
C2004       C  0.34743976  0.08153716  0.29340681     1.14480
C2005       C  0.43208853  0.14648353  0.33093730     1.05260
O2006       O  0.38855712  0.16015728  0.40080080    -0.94360
O2007       O  0.32176161  0.18030561  0.37449037    -0.90100
O2008       O  0.26885192  0.17157247  0.37283380    -0.83250
C2009       C  0.29045842  0.18233754  0.37886497     1.11900
O2010       O  0.36500705  0.13824869  0.24832800    -0.96330
Zr2011     Zr  0.32252352  0.14177421  0.28355482     1.88940
O2012       O  0.25918739  0.16662411  0.31413836    -0.72980
O2013       O  0.37656078  0.18611322  0.34762635    -0.52240
O2014       O  0.33903414  0.16884246  0.26809924    -0.96920
O2015       O  0.30350052  0.12830542  0.24087238    -0.54140
O2016       O  0.27152106  0.15452801  0.27312984    -0.73500
C2017       C  0.26037619  0.16638255  0.28730269     0.98840
O2018       O  0.22662890  0.14782302  0.38238262    -0.62320
O2019       O  0.26701573  0.08258832  0.35626028    -0.57120
O2020       O  0.22258825  0.13319795  0.33100444    -0.93800
O2021       O  0.23143937  0.10666811  0.31858077    -0.92230
O2022       O  0.30275637  0.09339236  0.41226539    -0.92590
O2023       O  0.30227498  0.12286035  0.43692236    -0.91370
C2024       C  0.21343867  0.11943995  0.32065644     1.17690
H2025       H  0.34237798  0.08973932  0.35733370     0.33630
H2026       H  0.31227242  0.15037946  0.39807861     0.44480
H2027       H  0.26160377  0.12920435  0.29492040     0.38010
H2028       H  0.38400632  0.14553695  0.30111568     0.34490
H2029       H  0.36857760  0.11728413  0.44633752     0.26280
H2030       H  0.39806198  0.18737688  0.35708146     0.32220
H2031       H  0.32621649  0.17073228  0.25080251     0.38130
H2032       H  0.31747185  0.08835505  0.42626916     0.32580
H2033       H  0.25081596  0.07659667  0.34460862     0.31460
H2034       H  0.25841528  0.07916742  0.29033870     0.33140
H2035       H  0.29507905  0.13723229  0.22898186     0.32110
H2036       H  0.28099822  0.12705091  0.42999157     0.36110
H2037       H  0.21769323  0.13661931  0.38391735     0.28840
H2038       H  0.42846363  0.09647172  0.29581738     0.33080
H2039       H  0.35891722  0.14559476  0.23280646     0.35930
H2040       H  0.28497792  0.07464970  0.35920530     0.28540
H2041       H  0.23735373  0.14976473  0.40071786     0.41410
H2042       H  0.41160432  0.15745289  0.39634991     0.31460
H2043       H  0.39024514  0.12684675  0.42511779     0.39080
H2044       H  0.28371449  0.12216973  0.24647827     0.30930
H2045       H  0.38144741  0.18654798  0.32740103     0.30990
H2046       H  0.41561435  0.11067231  0.27659343     0.31260
Zr2047     Zr  0.01248682  0.14197299  0.82877212     2.17510
O2048       O  0.47175351  0.15127611  0.79531845    -0.51100
O2049       O  0.48861143  0.16226175  0.86041759    -0.74300
O2050       O  0.46486082  0.12462552  0.83247329    -0.81090
O2051       O  0.07002206  0.17467966  0.81161533    -0.82830
O2052       O  0.47708509  0.09799550  0.82786472    -0.78460
O2053       O  0.02312899  0.16296975  0.79556431    -0.90090
O2054       O  0.01607342  0.16030000  0.90163373    -0.76050
O2055       O  0.01533349  0.12545235  0.86948185    -0.85540
O2056       O  0.05467557  0.15446790  0.85586558    -0.85230
O2057       O  0.02514788  0.11503557  0.81169345    -0.71990
O2058       O  0.06051897  0.14132292  0.80044347    -0.84130
Zr2059     Zr  0.11897591  0.10965171  0.85123172     2.26420
Zr2060     Zr  0.02960244  0.09829690  0.85335475     2.06270
Zr2061     Zr  0.10332844  0.15273778  0.82877155     2.10050
Zr2062     Zr  0.05755757  0.13824853  0.89633040     1.78760
O2063       O  0.12690894  0.16663831  0.78876819    -0.92930
O2064       O  0.02142570  0.12875947  0.93315647    -0.40740
O2065       O  0.10775021  0.13647378  0.86977008    -0.77370
O2066       O  0.07180101  0.11081234  0.88125096    -0.96060
O2067       O  0.07648178  0.09764296  0.82385079    -0.89360
O2068       O  0.11409237  0.12623219  0.81083739    -0.92200
C2069       C  0.99430597  0.16694473  0.88564274     1.01550
C2070       C  0.04504708  0.17405383  0.79553573     1.14480
C2071       C  0.45890831  0.11041179  0.82259563     1.05260
O2072       O  0.99831457  0.09666315  0.89639384    -0.94360
O2073       O  0.06482511  0.07521009  0.87028790    -0.90100
O2074       O  0.11806332  0.08342538  0.87278290    -0.83250
C2075       C  0.09553181  0.07284183  0.87622479     1.11900
O2076       O  0.03210889  0.11871791  0.74619797    -0.96330
Zr2077     Zr  0.07204156  0.11461583  0.78361323     1.88940
O2078       O  0.13332349  0.08905617  0.81595601    -0.72980
O2079       O  0.01022132  0.07048601  0.84515590    -0.52240
O2080       O  0.05576832  0.08772231  0.76627890    -0.96920
O2081       O  0.09363253  0.12839904  0.74266570    -0.54140
O2082       O  0.12334591  0.10162138  0.77512296    -0.73500
C2083       C  0.13352638  0.08958333  0.78916558     0.98840
O2084       O  0.16173009  0.10640948  0.88658506    -0.62320
O2085       O  0.12451274  0.17346491  0.86082387    -0.57120
O2086       O  0.16958665  0.12162047  0.83663816    -0.93800
O2087       O  0.16211562  0.14830570  0.82504821    -0.92230
O2088       O  0.08854376  0.16085477  0.91667876    -0.92590
O2089       O  0.08741145  0.13058190  0.93839307    -0.91370
C2090       C  0.17960886  0.13536465  0.82736692     1.17690
H2091       H  0.05074318  0.16584477  0.86007056     0.33630
H2092       H  0.07570636  0.10431810  0.89770157     0.44480
H2093       H  0.13268432  0.12656821  0.79856523     0.38010
H2094       H  0.00973186  0.11161184  0.79752681     0.34490
H2095       H  0.02130711  0.13776361  0.94709444     0.26280
H2096       H  0.48782046  0.07013958  0.85298432     0.32220
H2097       H  0.06948406  0.08582605  0.74955894     0.38130
H2098       H  0.07415465  0.16537313  0.93142623     0.32580
H2099       H  0.14243063  0.17881999  0.85044643     0.31460
H2100       H  0.13677214  0.17675175  0.79656863     0.33140
H2101       H  0.10263311  0.11954930  0.73075531     0.32110
H2102       H  0.10886394  0.12663688  0.93151275     0.36110
H2103       H  0.17051555  0.11754313  0.88985297     0.28840
H2104       H  0.45075190  0.15074051  0.80532539     0.33080
H2105       H  0.03865196  0.11120302  0.73090839     0.35930
H2106       H  0.10700586  0.18181870  0.86175943     0.28540
H2107       H  0.14985186  0.10393900  0.90404219     0.41410
H2108       H  0.47526789  0.09828127  0.89046722     0.31460
H2109       H  0.99919297  0.12898725  0.92479403     0.39080
H2110       H  0.11313665  0.13441495  0.74958230     0.30930
H2111       H  0.50714160  0.06954018  0.82467137     0.30990
H2112       H  0.47058913  0.14251802  0.78096562     0.31260
C2113       C  0.43543565  0.06315727  0.40191669    -0.13040
C2114       C  0.41851050  0.07489847  0.39493172    -0.14600
C2115       C  0.05417824  0.06262226  0.38175986    -0.13040
C2116       C  0.04480637  0.07117149  0.36353704    -0.14600
C2117       C  0.09426644  0.02988024  0.55440501    -0.13040
C2118       C  0.09795465  0.03016415  0.57931875    -0.14600
C2119       C  0.14005796  0.07527053  0.77334295    -0.13040
C2120       C  0.13644566  0.06414004  0.75723584    -0.14600
C2121       C  0.27688059  0.05708525  0.74586262    -0.13040
C2122       C  0.25940643  0.04601650  0.73667439    -0.14600
C2123       C  0.33956099  0.06022598  0.25421135    -0.13040
C2124       C  0.34763971  0.06997498  0.27151205    -0.14600
C2125       C  0.47370777  0.07627419  0.24347106    -0.13040
C2126       C  0.45816490  0.06407459  0.23697595    -0.14600
C2127       C  0.45883862  0.98896622  0.33136853    -0.13040
C2128       C  0.44470053  0.98913877  0.30894988    -0.14600
C2129       C  0.18291500  0.97372130  0.80448254    -0.13040
C2130       C  0.18677000  0.97408360  0.82941807    -0.14600
C2131       C  0.29858061  0.02125604  0.05690438    -0.13040
C2132       C  0.30624777  0.02069697  0.08133793    -0.14600
C2133       C  0.12395582  0.04636008  0.89672250    -0.13040
C2134       C  0.10704795  0.05738531  0.88749325    -0.14600
C2135       C  0.25738232  0.06165098  0.88110634    -0.13040
C2136       C  0.25507580  0.07303901  0.86554102    -0.14600
C2137       C  0.35603903  0.18588057  0.86447409    -0.13040
C2138       C  0.34709076  0.19517667  0.88201983    -0.14600
C2139       C  0.46036348  0.19333687  0.90270188    -0.13040
C2140       C  0.47581970  0.18111983  0.89591636    -0.14600
C2141       C  0.13769475  0.19127544  0.37888161    -0.13040
C2142       C  0.14285901  0.18053393  0.36238291    -0.14600
C2143       C  0.25916273  0.20848028  0.40033592    -0.13040
C2144       C  0.27700679  0.19754421  0.39114345    -0.14600
C2145       C  0.44121386  0.26780320  0.82999449    -0.13040
C2146       C  0.45566308  0.26753942  0.80754964    -0.14600
C2147       C  0.08957239  0.22594241  0.58232671    -0.13040
C2148       C  0.09383079  0.22537372  0.55737976    -0.14600
C2149       C  0.43254565  0.19219265  0.73590349    -0.13040
C2150       C  0.41598881  0.18030567  0.74273892    -0.14600
C2151       C  0.04440712  0.18543310  0.77407081    -0.13040
C2152       C  0.05307147  0.19403298  0.75580727    -0.14600
C2153       C  0.29976674  0.22845759  0.07960592    -0.13040
C2154       C  0.30683076  0.22874434  0.05508954    -0.14600
C2155       C  0.19619852  0.28062275  0.30739214    -0.13040
C2156       C  0.18917593  0.28035727  0.33196810    -0.14600
C2157       C  0.12919121  0.20952468  0.23710918    -0.13040
C2158       C  0.11193575  0.19854961  0.24648339    -0.14600
C2159       C  0.25696904  0.19201323  0.25605271    -0.13040
C2160       C  0.25402751  0.18077119  0.27178899    -0.14600
C2161       C  0.12799307  0.92367481  0.61989961    -0.13040
C2162       C  0.12832809  0.93464213  0.63658480    -0.14600
C2163       C  0.15149278  0.96077855  0.48454261    -0.13040
C2164       C  0.16853087  0.94981606  0.49375920    -0.14600
C2165       C  0.02331937  0.92778104  0.50810162    -0.13040
C2166       C  0.52320256  0.93913914  0.49235860    -0.14600
C2167       C  0.99819357  0.94947072  0.63615080    -0.13040
C2168       C  0.01634590  0.96030729  0.64520476    -0.14600
C2169       C  0.43604488  0.81250305  0.50071875    -0.13040
C2170       C  0.43457399  0.82192119  0.51980365    -0.14600
C2171       C  0.28714310  0.82311994  0.49161083    -0.13040
C2172       C  0.30062726  0.81064336  0.48399949    -0.14600
C2173       C  0.30933928  0.73714571  0.54945750    -0.13040
C2174       C  0.30033141  0.73798255  0.57322137    -0.14600
C2175       C  0.34755612  0.81414918  0.64801044    -0.13040
C2176       C  0.36487949  0.82555314  0.64063310    -0.14600
C2177       C  0.21916575  0.81944951  0.63781972    -0.13040
C2178       C  0.22556344  0.82746305  0.61796567    -0.14600
C2179       C  0.17556203  0.77220415  0.82729828    -0.13040
C2180       C  0.18532422  0.77197498  0.80363556    -0.14600
C2181       C  0.08791666  0.72561322  0.08157891    -0.13040
C2182       C  0.09102829  0.72650227  0.05689616    -0.14600
C2183       C  0.46280849  0.76946672  0.30458241    -0.13040
C2184       C  0.45332280  0.76937040  0.32838068    -0.14600
C2185       C  0.30118360  0.68222064  0.75625233    -0.13040
C2186       C  0.29980237  0.69296370  0.73980771    -0.14600
C2187       C  0.21645995  0.69613421  0.89809192    -0.13040
C2188       C  0.23231466  0.68420140  0.89015447    -0.14600
C2189       C  0.51664016  0.31586020  0.64187661    -0.13040
C2190       C  0.01726810  0.32661726  0.62479378    -0.14600
C2191       C  0.99453941  0.30386038  0.49633302    -0.13040
C2192       C  0.01329387  0.29316999  0.48786547    -0.14600
C2193       C  0.04207957  0.68435495  0.27148251    -0.13040
C2194       C  0.04913891  0.69372289  0.25379133    -0.14600
C2195       C  0.48409339  0.67812728  0.39097719    -0.13040
C2196       C  0.47033039  0.69061625  0.39819887    -0.14600
C2197       C  0.35226797  0.69677720  0.37890861    -0.13040
C2198       C  0.35811391  0.68625247  0.36240626    -0.14600
C2199       C  0.42888558  0.69111419  0.23394446    -0.13040
C2200       C  0.41328648  0.67911662  0.24146366    -0.14600
C2201       C  0.37593368  0.31711639  0.99484666    -0.13040
C2202       C  0.37183515  0.32819666  0.01119450    -0.14600
C2203       C  0.39045037  0.30685607  0.13982084    -0.13040
C2204       C  0.37109504  0.29657696  0.14880226    -0.14600
C2205       C  0.25429275  0.32128907  0.14048161    -0.13040
C2206       C  0.25725877  0.33192765  0.12357548    -0.14600
C2207       C  0.24579895  0.29596830  0.98403047    -0.13040
C2208       C  0.22692766  0.30611982  0.99361420    -0.14600
C2209       C  0.09631363  0.69532816  0.88164394    -0.13040
C2210       C  0.10335680  0.68651423  0.86285765    -0.14600
C2211       C  0.15815075  0.68316932  0.73956514    -0.13040
C2212       C  0.16971871  0.69614241  0.73215893    -0.14600
C2213       C  0.13044734  0.31933563  0.50238808    -0.13040
C2214       C  0.12840286  0.32989833  0.51985669    -0.14600
C2215       C  0.16524116  0.30510022  0.64444780    -0.13040
C2216       C  0.14782868  0.29421517  0.65322389    -0.14600
C2217       C  0.22938798  0.43413688  0.49500352    -0.13040
C2218       C  0.23301074  0.42610182  0.51509128    -0.14600
C2219       C  0.34047163  0.44124830  0.48550328    -0.13040
C2220       C  0.35703481  0.42914909  0.49220921    -0.14600
C2221       C  0.26300769  0.55974436  0.38519073    -0.13040
C2222       C  0.26040501  0.57106155  0.36952165    -0.14600
C2223       C  0.12678516  0.54459470  0.39861391    -0.13040
C2224       C  0.10947815  0.55504461  0.38808319    -0.14600
C2225       C  0.30504440  0.44476935  0.65043141    -0.13040
C2226       C  0.29005546  0.43220501  0.64413239    -0.14600
C2227       C  0.30846547  0.51859701  0.55784426    -0.13040
C2228       C  0.32218978  0.51964374  0.58034279    -0.14600
C2229       C  0.38594861  0.57392786  0.76852560    -0.13040
C2230       C  0.38136113  0.56292669  0.75218992    -0.14600
C2231       C  0.01801987  0.54777224  0.73441081    -0.13040
C2232       C  0.03616438  0.55815209  0.74434246    -0.14600
C2233       C  0.40886501  0.43840802  0.63584887    -0.13040
C2234       C  0.40722148  0.42927688  0.61671030    -0.14600
C2235       C  0.44910490  0.47754489  0.82829196    -0.13040
C2236       C  0.44787472  0.47768862  0.80323688    -0.14600
C2237       C  0.38165151  0.54890621  0.89659195    -0.13040
C2238       C  0.36349918  0.55952713  0.88737639    -0.14600
C2239       C  0.01251828  0.57386223  0.86549059    -0.13040
C2240       C  0.01673159  0.56279226  0.88136463    -0.14600
C2241       C  0.08996643  0.44487940  0.98354580    -0.13040
C2242       C  0.10342010  0.43213718  0.99054384    -0.14600
C2243       C  0.45706011  0.44024039  0.00337215    -0.13040
C2244       C  0.45827117  0.43152883  0.02306984    -0.14600
C2245       C  0.08546052  0.52043661  0.07567321    -0.13040
C2246       C  0.07336229  0.52101066  0.05253572    -0.14600
C2247       C  0.19364046  0.47433675  0.32954885    -0.13040
C2248       C  0.19160809  0.47433456  0.30453667    -0.14600
C2249       C  0.17621313  0.43535640  0.13037833    -0.13040
C2250       C  0.16947712  0.42776513  0.10993258    -0.14600
C2251       C  0.04503650  0.44333790  0.14844553    -0.13040
C2252       C  0.02825640  0.43135902  0.14164702    -0.14600
C2253       C  0.26242108  0.54527762  0.23672777    -0.13040
C2254       C  0.28056938  0.55583067  0.24649617    -0.14600
C2255       C  0.13744806  0.57060115  0.26646521    -0.13040
C2256       C  0.13200814  0.55966501  0.25029711    -0.14600
C2257       C  0.12113836  0.82969832  0.00835666    -0.13040
C2258       C  0.12512774  0.81868222  0.99204061    -0.14600
C2259       C  0.13812767  0.79419251  0.14554799    -0.13040
C2260       C  0.15509141  0.80494801  0.13577362    -0.14600
C2261       C  0.20051865  0.93086279  0.02652674    -0.13040
C2262       C  0.19788393  0.93848344  0.00556792    -0.14600
C2263       C  0.26881657  0.93174802  0.14563499    -0.13040
C2264       C  0.28201287  0.94429443  0.15381939    -0.14600
C2265       C  0.50861785  0.81504847  0.13950418    -0.13040
C2266       C  0.50716012  0.82676037  0.12470697    -0.14600
C2267       C  0.48372876  0.80897163  0.99719297    -0.13040
C2268       C  0.00237741  0.79841474  0.98829872    -0.14600
C2269       C  0.41833027  0.94151752  0.14002067    -0.13040
C2270       C  0.41760004  0.93280006  0.11994183    -0.14600
C2271       C  0.35566532  0.93421964  0.99319874    -0.13040
C2272       C  0.33974827  0.94613111  0.98569060    -0.14600
Zr2273     Zr  0.88039431  0.89249173  0.05861240     2.17510
O2274       O  0.83348335  0.89886747  0.08815154    -0.51100
O2275       O  0.86213311  0.91389843  0.02706531    -0.74300
O2276       O  0.88853317  0.91423106  0.09274797    -0.81090
O2277       O  0.84816648  0.84874514  0.05238623    -0.82830
O2278       O  0.93620804  0.92373924  0.07724783    -0.78460
O2279       O  0.83527055  0.87483121  0.04504656    -0.90090
O2280       O  0.89807047  0.91411753  0.99101163    -0.76050
O2281       O  0.92789179  0.90505964  0.03984039    -0.85540
O2282       O  0.89011102  0.87803603  0.01552793    -0.85230
O2283       O  0.92233836  0.88827050  0.09373394    -0.71990
O2284       O  0.88983723  0.86420240  0.06899242    -0.84130
Zr2285     Zr  0.98785955  0.85866662  0.04447209     2.26420
Zr2286     Zr  0.97045850  0.90029917  0.07355265     2.06270
Zr2287     Zr  0.90028686  0.84941239  0.02632404     2.10050
Zr2288     Zr  0.93720799  0.89109245  0.99732537     1.78760
O2289       O  0.87370773  0.82276846  0.02409510    -0.92930
O2290       O  0.97238745  0.91393997  0.98494833    -0.40740
O2291       O  0.94767909  0.86262993  0.00820799    -0.77370
O2292       O  0.98142577  0.88666113  0.03019281    -0.96060
O2293       O  0.97711063  0.87264859  0.08669621    -0.89360
O2294       O  0.94030854  0.84555320  0.06190298    -0.92200
C2295       C  0.87298989  0.91988304  0.00422014     1.01550
C2296       C  0.82883251  0.86098219  0.05573055     1.14480
C2297       C  0.91335890  0.92362180  0.09502451     1.05260
O2298       O  0.00240799  0.92534682  0.07075128    -0.94360
O2299       O  0.52907298  0.89697895  0.06904721    -0.90100
O2300       O  0.53086183  0.86959879  0.07239683    -0.83250
C2301       C  0.54442871  0.88357593  0.07268970     1.11900
O2302       O  0.87753645  0.86051755  0.12988022    -0.96330
Zr2303     Zr  0.92916022  0.86021512  0.10436297     1.88940
O2304       O  0.50086818  0.83861411  0.08057156    -0.72980
O2305       O  0.97990387  0.90346610  0.12358944    -0.52240
O2306       O  0.93632684  0.87163940  0.15116501    -0.96920
O2307       O  0.91677325  0.83226044  0.11841521    -0.54140
O2308       O  0.98206373  0.85132647  0.11907793    -0.73500
C2309       C  0.99739218  0.83978754  0.10715865     0.98840
O2310       O  0.53724701  0.85696993  0.01609222    -0.62320
O2311       O  0.87520284  0.85095265  0.98012130    -0.57120
O2312       O  0.99180738  0.83362689  0.01924337    -0.93800
O2313       O  0.93867310  0.82677678  0.01043667    -0.92230
O2314       O  0.90726483  0.88368218  0.95495914    -0.92590
O2315       O  0.97339294  0.88546139  0.95814709    -0.91370
C2316       C  0.97010363  0.82391735  0.00956467     1.17690
H2317       H  0.87180799  0.87936319  0.00286946     0.33630
H2318       H  0.50158603  0.89059030  0.02215766     0.44480
H2319       H  0.94357726  0.83402651  0.06496654     0.38010
H2320       H  0.91764704  0.89315177  0.11169168     0.34490
H2321       H  0.96043140  0.91964096  0.96984379     0.26280
H2322       H  0.50090492  0.89776525  0.12706884     0.32220
H2323       H  0.94193007  0.86215399  0.16298022     0.38130
H2324       H  0.90627130  0.89388613  0.94401155     0.32580
H2325       H  0.88098420  0.84047951  0.97091256     0.31460
H2326       H  0.85367476  0.82439892  0.01270468     0.33140
H2327       H  0.92202398  0.83201134  0.13862829     0.32110
H2328       H  0.49202547  0.87943230  0.96646834     0.36110
H2329       H  0.52918225  0.85708220  0.99654877     0.28840
H2330       H  0.82971073  0.91079834  0.08714792     0.33080
H2331       H  0.88142821  0.85422218  0.14715806     0.35930
H2332       H  0.85134955  0.85016839  0.98355229     0.28540
H2333       H  0.54829461  0.86766022  0.01848758     0.41410
H2334       H  0.00086408  0.92855227  0.05088403     0.31460
H2335       H  0.97113908  0.92148435  0.00117751     0.39080
H2336       H  0.93370310  0.82523385  0.10979748     0.30930
H2337       H  0.98513547  0.91519013  0.12621713     0.30990
H2338       H  0.84061972  0.89678915  0.10761425     0.31260
Zr2339     Zr  0.74649384  0.89073056  0.07750433     2.17510
O2340       O  0.78961360  0.89726094  0.04417355    -0.51100
O2341       O  0.76469661  0.91149875  0.11092323    -0.74300
O2342       O  0.73743877  0.91453760  0.04942350    -0.81090
O2343       O  0.78169980  0.84798587  0.07631924    -0.82830
O2344       O  0.69146512  0.92101234  0.07093667    -0.78460
O2345       O  0.79378313  0.87387487  0.08698160    -0.90090
O2346       O  0.72960143  0.91049930  0.14760038    -0.76050
O2347       O  0.69968276  0.90185334  0.10026321    -0.85540
O2348       O  0.74020027  0.87486636  0.11902557    -0.85230
O2349       O  0.70191069  0.88769772  0.04410265    -0.71990
O2350       O  0.73783113  0.86293368  0.06260366    -0.84130
Zr2351     Zr  0.64048776  0.85561027  0.09404168     2.26420
Zr2352     Zr  0.65495804  0.89837803  0.06822620     2.06270
Zr2353     Zr  0.73090033  0.84684713  0.10398941     2.10050
Zr2354     Zr  0.69366475  0.88647379  0.14133003     1.78760
O2355       O  0.75626833  0.82010726  0.09826400    -0.92930
O2356       O  0.65733886  0.90765452  0.15927399    -0.40740
O2357       O  0.68447032  0.85844374  0.12721231    -0.77370
O2358       O  0.64735518  0.88322385  0.11037730    -0.96060
O2359       O  0.64710977  0.87110948  0.05271861    -0.89360
O2360       O  0.68679343  0.84370779  0.07136677    -0.92200
C2361       C  0.75360020  0.91698548  0.13422491     1.01550
C2362       C  0.80044083  0.86052590  0.07437160     1.14480
C2363       C  0.71103331  0.92267092  0.05077440     1.05260
O2364       O  0.62387373  0.92362294  0.07286852    -0.94360
O2365       O  0.59664682  0.89600858  0.07444907    -0.90100
O2366       O  0.59062964  0.86884610  0.08190026    -0.83250
C2367       C  0.57940476  0.88309399  0.07692799     1.11900
O2368       O  0.72992946  0.87235709  0.99607099    -0.96330
Zr2369     Zr  0.69410501  0.85993698  0.03053199     1.88940
O2370       O  0.62278462  0.83808758  0.05527211    -0.72980
O2371       O  0.64457877  0.90308230  0.01873329    -0.52240
O2372       O  0.68448432  0.85604480  0.98061051    -0.96920
O2373       O  0.71737949  0.83280205  0.02337826    -0.54140
O2374       O  0.63691172  0.85547438  0.02217431    -0.73500
C2375       C  0.62508689  0.84188119  0.02948773     0.98840
O2376       O  0.59753432  0.84994063  0.12807425    -0.62320
O2377       O  0.76134971  0.84645998  0.14789101    -0.57120
O2378       O  0.64279067  0.82931169  0.11512518    -0.93800
O2379       O  0.69692523  0.82356382  0.12120273    -0.92230
O2380       O  0.72818664  0.87917229  0.18093363    -0.92590
O2381       O  0.66126334  0.87779362  0.18111690    -0.91370
C2382       C  0.66603522  0.82007981  0.12325697     1.17690
H2383       H  0.75927675  0.87593993  0.13093053     0.33630
H2384       H  0.62784770  0.88682113  0.11996749     0.44480
H2385       H  0.68309441  0.83231433  0.06697868     0.38010
H2386       H  0.70555788  0.89370402  0.02713469     0.34490
H2387       H  0.66985281  0.91296500  0.17461997     0.26280
H2388       H  0.62697632  0.89525071  0.01370301     0.32220
H2389       H  0.67936998  0.84429855  0.97817714     0.38130
H2390       H  0.72757799  0.88886800  0.19341772     0.32580
H2391       H  0.75631739  0.83567935  0.15607270     0.31460
H2392       H  0.77586298  0.82034390  0.11053973     0.33140
H2393       H  0.73250161  0.83406584  0.00742833     0.32110
H2394       H  0.64140392  0.87279208  0.17269598     0.36110
H2395       H  0.60925935  0.84791662  0.14588033     0.28840
H2396       H  0.79510109  0.90899058  0.04626298     0.33080
H2397       H  0.75229238  0.86911253  0.00192749     0.35930
H2398       H  0.78462285  0.84569635  0.14227796     0.28540
H2399       H  0.58626725  0.86047147  0.13147837     0.41410
H2400       H  0.62612804  0.92669243  0.09283681     0.31460
H2401       H  0.65658527  0.91593542  0.14431065     0.39080
H2402       H  0.69910082  0.82609232  0.01588766     0.30930
H2403       H  0.63384851  0.91391481  0.01801717     0.30990
H2404       H  0.77953035  0.89616360  0.02538740     0.31260
Zr2405     Zr  0.66309587  0.51301336  0.23693030     2.17510
O2406       O  0.66151685  0.52626313  0.28281029    -0.51100
O2407       O  0.71305177  0.53015002  0.24079246    -0.74300
O2408       O  0.67842686  0.49479815  0.27428041    -0.81090
O2409       O  0.62171902  0.54838901  0.20587006    -0.82830
O2410       O  0.69038925  0.46977287  0.25627267    -0.78460
O2411       O  0.62024958  0.53246887  0.24321357    -0.90090
O2412       O  0.74071833  0.52925855  0.19981327    -0.76050
O2413       O  0.70348565  0.49834677  0.21162873    -0.85540
O2414       O  0.66818906  0.52710119  0.19362440    -0.85230
O2415       O  0.63924147  0.48602756  0.23222867    -0.71990
O2416       O  0.60904363  0.51254388  0.21563391    -0.84130
Zr2417     Zr  0.63174666  0.48423491  0.14149832     2.26420
Zr2418     Zr  0.68023629  0.47164854  0.20609898     2.06270
Zr2419     Zr  0.61461183  0.52630731  0.17186403     2.10050
Zr2420     Zr  0.70763726  0.51226554  0.16814918     1.78760
O2421       O  0.55715622  0.53237860  0.18060135    -0.92930
O2422       O  0.76230068  0.50029093  0.16793843    -0.40740
O2423       O  0.65456959  0.51131077  0.14571706    -0.77370
O2424       O  0.68645851  0.48522757  0.16212745    -0.96060
O2425       O  0.62678944  0.47048271  0.18469381    -0.89360
O2426       O  0.59169769  0.49940216  0.16624679    -0.92200
C2427       C  0.73744452  0.53413617  0.22520546     1.01550
C2428       C  0.62350068  0.54639910  0.23229318     1.14480
C2429       C  0.68717243  0.47987708  0.27664218     1.05260
O2430       O  0.73925654  0.46849010  0.20129007    -0.94360
O2431       O  0.67613315  0.44942244  0.17269178    -0.90100
O2432       O  0.66755038  0.46218154  0.13146451    -0.83250
C2433       C  0.67409113  0.44972700  0.14606240     1.11900
O2434       O  0.56196331  0.49415481  0.25350997    -0.96330
Zr2435     Zr  0.58663949  0.48547100  0.20951647     1.88940
O2436       O  0.58732123  0.46316843  0.14031363    -0.72980
O2437       O  0.68071332  0.44360064  0.22301795    -0.52240
O2438       O  0.58165748  0.46206236  0.24040262    -0.96920
O2439       O  0.53012255  0.49426389  0.20200195    -0.54140
O2440       O  0.56108223  0.46337051  0.18195424    -0.73500
C2441       C  0.56555694  0.45749069  0.15727545     0.98840
O2442       O  0.63462421  0.47797004  0.09160810    -0.62320
O2443       O  0.62013561  0.55201459  0.14701081    -0.57120
O2444       O  0.60848746  0.50121922  0.10508227    -0.93800
O2445       O  0.59838544  0.52662548  0.12256370    -0.92230
O2446       O  0.71234842  0.53832615  0.14429976    -0.92590
O2447       O  0.72964086  0.50865797  0.12130951    -0.91370
C2448       C  0.59838897  0.51596879  0.10270489     1.17690
H2449       H  0.67602308  0.53814847  0.19621530     0.33630
H2450       H  0.70338563  0.47987487  0.15141991     0.44480
H2451       H  0.57134434  0.49965683  0.15589067     0.38010
H2452       H  0.63460030  0.48102001  0.24992459     0.34490
H2453       H  0.77700988  0.50933022  0.16246140     0.26280
H2454       H  0.70203594  0.44217526  0.23266681     0.32220
H2455       H  0.55882391  0.45820015  0.23790613     0.38130
H2456       H  0.73600149  0.54100411  0.14511011     0.32580
H2457       H  0.60319562  0.55927086  0.15511018     0.31460
H2458       H  0.54589865  0.52979705  0.16273161     0.33140
H2459       H  0.51659686  0.48589751  0.21133828     0.32110
H2460       H  0.71196053  0.50303042  0.11075268     0.36110
H2461       H  0.65813630  0.47857670  0.08667872     0.28840
H2462       H  0.68345393  0.52461443  0.29126062     0.33080
H2463       H  0.54384436  0.48641348  0.25708038     0.35930
H2464       H  0.64124713  0.55665844  0.15357317     0.28540
H2465       H  0.62874350  0.46627302  0.08965878     0.41410
H2466       H  0.74801159  0.47001722  0.22046494     0.31460
H2467       H  0.76757439  0.49841956  0.18787127     0.39080
H2468       H  0.52564000  0.49247790  0.18187222     0.30930
H2469       H  0.66404121  0.44318817  0.23795997     0.30990
H2470       H  0.64644492  0.51960341  0.29421147     0.31260
Zr2471     Zr  0.48070458  0.51643778  0.89558366     2.17510
O2472       O  0.48192902  0.52922851  0.84966044    -0.51100
O2473       O  0.93109847  0.53382795  0.89220720    -0.74300
O2474       O  0.96381806  0.49791819  0.85862984    -0.81090
O2475       O  0.52581792  0.55140152  0.92558590    -0.82830
O2476       O  0.94926265  0.47336338  0.87664772    -0.78460
O2477       O  0.52436231  0.53527059  0.88791328    -0.90090
O2478       O  0.90368362  0.53323804  0.93329410    -0.76050
O2479       O  0.93991602  0.50264161  0.92143210    -0.85540
O2480       O  0.97758435  0.53098658  0.93891625    -0.85230
O2481       O  0.50267372  0.48914142  0.89996826    -0.71990
O2482       O  0.53511679  0.51521150  0.91611306    -0.84130
Zr2483     Zr  0.51173096  0.48854877  0.99053599     2.26420
Zr2484     Zr  0.96130891  0.47556618  0.92653251     2.06270
Zr2485     Zr  0.53167333  0.52965385  0.95982510     2.10050
Zr2486     Zr  0.93752486  0.51700525  0.96494138     1.78760
O2487       O  0.58851911  0.53615522  0.94940635    -0.92930
O2488       O  0.88320196  0.50480262  0.96779220    -0.40740
O2489       O  0.99092075  0.51585697  0.98659451    -0.77370
O2490       O  0.95740840  0.48972545  0.97056818    -0.96060
O2491       O  0.51453623  0.47414300  0.94754926    -0.89360
O2492       O  0.55248475  0.50246268  0.96486356    -0.92200
C2493       C  0.90676806  0.53789499  0.90790626     1.01550
C2494       C  0.52323393  0.54931335  0.89914643     1.14480
C2495       C  0.95360955  0.48319559  0.85626816     1.05260
O2496       O  0.90233050  0.47100757  0.92633780    -0.94360
O2497       O  0.95435743  0.45512027  0.96230818    -0.90100
O2498       O  0.98483654  0.46356347  0.99979568    -0.83250
C2499       C  0.96565909  0.45370004  0.98718054     1.11900
O2500       O  0.58128673  0.49602279  0.87842127    -0.96330
Zr2501     Zr  0.55549223  0.48777510  0.92198852     1.88940
O2502       O  0.55351890  0.46680382  0.99291761    -0.72980
O2503       O  0.97301717  0.44795302  0.91005552    -0.52240
O2504       O  0.55845091  0.46440781  0.89021117    -0.96920
O2505       O  0.61318774  0.49430916  0.93007880    -0.54140
O2506       O  0.57645308  0.46483020  0.94988136    -0.73500
C2507       C  0.57255515  0.45978398  0.97506490     0.98840
O2508       O  0.99261427  0.48758596  0.03881493    -0.62320
O2509       O  0.52494972  0.55504987  0.98597764    -0.57120
O2510       O  0.54608382  0.50276753  0.02392962    -0.93800
O2511       O  0.55385215  0.52859580  0.00782404    -0.92230
O2512       O  0.93373054  0.54388044  0.98685740    -0.92590
O2513       O  0.91722078  0.51528333  0.01257411    -0.91370
C2514       C  0.55690103  0.51738860  0.02645467     1.17690
H2515       H  0.97045053  0.54212143  0.93627763     0.33630
H2516       H  0.94193215  0.48427465  0.98251312     0.44480
H2517       H  0.57329862  0.50241156  0.97452580     0.38010
H2518       H  0.50668037  0.48386304  0.88225230     0.34490
H2519       H  0.86833259  0.51408714  0.97172224     0.26280
H2520       H  0.95253720  0.44417776  0.90088537     0.32220
H2521       H  0.58048152  0.45968707  0.89338492     0.38130
H2522       H  0.91004122  0.54649334  0.98670498     0.32580
H2523       H  0.54205857  0.56242482  0.97864309     0.31460
H2524       H  0.59606723  0.54278688  0.96558541     0.33140
H2525       H  0.62541338  0.48580296  0.91965321     0.32110
H2526       H  0.93184938  0.50730211  0.02178066     0.36110
H2527       H  0.98936072  0.49914281  0.04441201     0.28840
H2528       H  0.45971009  0.52776248  0.84162030     0.33080
H2529       H  0.59825003  0.48771280  0.87433254     0.35930
H2530       H  0.50403625  0.55967196  0.97906302     0.28540
H2531       H  0.97005324  0.48315854  0.03787133     0.41410
H2532       H  0.89397550  0.47743053  0.91037072     0.31460
H2533       H  0.87781377  0.50150013  0.94836594     0.39080
H2534       H  0.61749882  0.49170678  0.94991649     0.30930
H2535       H  0.98880715  0.44933845  0.89461138     0.30990
H2536       H  0.49633927  0.52225490  0.83801637     0.31260
Zr2537     Zr  0.91818053  0.51655382  0.73620814     2.17510
O2538       O  0.91882739  0.53012003  0.78183977    -0.51100
O2539       O  0.96829422  0.53338338  0.73889740    -0.74300
O2540       O  0.93538533  0.49842014  0.77323280    -0.81090
O2541       O  0.87216919  0.55129577  0.70759497    -0.82830
O2542       O  0.94659821  0.47340211  0.75488123    -0.78460
O2543       O  0.87465887  0.53532921  0.74507051    -0.90090
O2544       O  0.99487040  0.53267970  0.69738110    -0.76050
O2545       O  0.95857110  0.50289462  0.70939944    -0.85540
O2546       O  0.92037432  0.53093393  0.69294766    -0.85230
O2547       O  0.89625213  0.48921814  0.73224915    -0.71990
O2548       O  0.86346386  0.51542491  0.71634869    -0.84130
Zr2549     Zr  0.88554110  0.48790691  0.64151642     2.26420
Zr2550     Zr  0.93736506  0.47579391  0.70459917     2.06270
Zr2551     Zr  0.86607483  0.52947788  0.67257022     2.10050
Zr2552     Zr  0.95975840  0.51697510  0.66582501     1.78760
O2553       O  0.80972931  0.53703133  0.68295725    -0.92930
O2554       O  0.51486641  0.50600674  0.66016952    -0.40740
O2555       O  0.90599713  0.51540888  0.64492907    -0.77370
O2556       O  0.94090055  0.48951780  0.66034425    -0.96060
O2557       O  0.88316260  0.47414645  0.68488354    -0.89360
O2558       O  0.84545038  0.50212888  0.66789231    -0.92200
C2559       C  0.99241154  0.53720400  0.72297269     1.01550
C2560       C  0.87516309  0.54933633  0.73403999     1.14480
C2561       C  0.94392078  0.48344681  0.77540609     1.05260
O2562       O  0.99478813  0.47436800  0.69118381    -0.94360
O2563       O  0.91759698  0.45307744  0.67682748    -0.90100
O2564       O  0.92038966  0.46511466  0.63515474    -0.83250
C2565       C  0.91648787  0.45269716  0.65022445     1.11900
O2566       O  0.81933592  0.49660520  0.75545431    -0.96330
Zr2567     Zr  0.84291157  0.48799847  0.71098048     1.88940
O2568       O  0.84340839  0.46598366  0.64074196    -0.72980
O2569       O  0.95722730  0.44879744  0.71789624    -0.52240
O2570       O  0.84017184  0.46463237  0.74216754    -0.96920
O2571       O  0.78531891  0.49513017  0.70438809    -0.54140
O2572       O  0.81989212  0.46511516  0.68359729    -0.73500
C2573       C  0.82369032  0.45954330  0.65860482     0.98840
O2574       O  0.89502665  0.48329422  0.59182846    -0.62320
O2575       O  0.87520664  0.55432039  0.64605178    -0.57120
O2576       O  0.85365889  0.50253056  0.60735114    -0.93800
O2577       O  0.84137217  0.52763424  0.62533966    -0.92230
O2578       O  0.96234852  0.54407562  0.64530621    -0.92590
O2579       O  0.97718919  0.51512910  0.61730826    -0.91370
C2580       C  0.84019071  0.51661351  0.60590205     1.17690
H2581       H  0.92751286  0.54208699  0.69570574     0.33630
H2582       H  0.95728867  0.48442089  0.64867817     0.44480
H2583       H  0.82451631  0.50194563  0.65841867     0.38010
H2584       H  0.89186325  0.48412354  0.74990375     0.34490
H2585       H  0.52821267  0.51540304  0.65397841     0.26280
H2586       H  0.97751419  0.45063967  0.72891802     0.32220
H2587       H  0.81757580  0.46037749  0.74000693     0.38130
H2588       H  0.98604522  0.54659622  0.64428625     0.32580
H2589       H  0.85826732  0.56203854  0.65278225     0.31460
H2590       H  0.80443908  0.54571025  0.66936851     0.33140
H2591       H  0.77306687  0.48674034  0.71485562     0.32110
H2592       H  0.96079103  0.50790732  0.60819383     0.36110
H2593       H  0.91914160  0.48349159  0.58965741     0.28840
H2594       H  0.94119099  0.52854963  0.78947355     0.33080
H2595       H  0.80197602  0.48856584  0.75972739     0.35930
H2596       H  0.89609556  0.55878163  0.65345489     0.28540
H2597       H  0.88866914  0.47178172  0.58828641     0.41410
H2598       H  0.50705478  0.47695587  0.70856439     0.31460
H2599       H  0.52265754  0.50388453  0.67942192     0.39080
H2600       H  0.78029493  0.49259544  0.68457513     0.30930
H2601       H  0.94109610  0.44460891  0.73147503     0.30990
H2602       H  0.90446441  0.52348902  0.79392955     0.31260
Zr2603     Zr  0.72536583  0.51249340  0.39797269     2.17510
O2604       O  0.72721169  0.52568456  0.35238267    -0.51100
O2605       O  0.67578080  0.52957841  0.39474137    -0.74300
O2606       O  0.70770463  0.49470725  0.36026881    -0.81090
O2607       O  0.76990918  0.54707265  0.42878659    -0.82830
O2608       O  0.69549133  0.46975580  0.37766911    -0.78460
O2609       O  0.76770845  0.53194771  0.38978120    -0.90090
O2610       O  0.64844413  0.52936240  0.43590279    -0.76050
O2611       O  0.68382199  0.49907289  0.42351359    -0.85540
O2612       O  0.72190568  0.52681564  0.44153529    -0.85230
O2613       O  0.74668826  0.48505756  0.40160344    -0.71990
O2614       O  0.77958541  0.51091089  0.41862386    -0.84130
Zr2615     Zr  0.75537696  0.48326841  0.49285372     2.26420
Zr2616     Zr  0.70440291  0.47193103  0.42801431     2.06270
Zr2617     Zr  0.77557830  0.52493284  0.46260243     2.10050
Zr2618     Zr  0.68179063  0.51294705  0.46757683     1.78760
O2619       O  0.83303808  0.53071453  0.45347442    -0.92930
O2620       O  0.62600307  0.50247027  0.47072016    -0.40740
O2621       O  0.73506497  0.51084568  0.48924604    -0.77370
O2622       O  0.70033713  0.48545312  0.47284143    -0.96060
O2623       O  0.75814838  0.46971927  0.44890697    -0.89360
O2624       O  0.79609284  0.49754348  0.46758651    -0.92200
C2625       C  0.65159154  0.53376521  0.41039169     1.01550
C2626       C  0.76755997  0.54567792  0.40216485     1.14480
C2627       C  0.69852454  0.47985199  0.35754928     1.05260
O2628       O  0.64679686  0.47097042  0.44099035    -0.94360
O2629       O  0.72216929  0.44872262  0.45430972    -0.90100
O2630       O  0.71840539  0.46088238  0.49608221    -0.83250
C2631       C  0.72227407  0.44837186  0.48084159     1.11900
O2632       O  0.82354290  0.49074698  0.37940069    -0.96330
Zr2633     Zr  0.79948389  0.48335475  0.42410880     1.88940
O2634       O  0.79922462  0.46180978  0.49418826    -0.72980
O2635       O  0.68361643  0.44520646  0.41333860    -0.52240
O2636       O  0.80137646  0.45919913  0.39406079    -0.96920
O2637       O  0.85675138  0.49131737  0.43009708    -0.54140
O2638       O  0.82415649  0.46113224  0.45192875    -0.73500
C2639       C  0.82019963  0.45559860  0.47683231     0.98840
O2640       O  0.74673333  0.47651225  0.54178864    -0.62320
O2641       O  0.77028478  0.55053090  0.48845928    -0.57120
O2642       O  0.78143374  0.49973596  0.52929922    -0.93800
O2643       O  0.79419352  0.52462901  0.51136767    -0.92230
O2644       O  0.68020594  0.53971731  0.49007384    -0.92590
O2645       O  0.66175201  0.51075855  0.51525730    -0.91370
C2646       C  0.79361379  0.51417446  0.53129330     1.17690
H2647       H  0.71493823  0.53799209  0.43909003     0.33630
H2648       H  0.68321588  0.48061599  0.48394272     0.44480
H2649       H  0.81666594  0.49742189  0.47762921     0.38010
H2650       H  0.75095762  0.47997165  0.38377364     0.34490
H2651       H  0.61277083  0.51190253  0.47714939     0.26280
H2652       H  0.66339386  0.44728310  0.40240999     0.32220
H2653       H  0.82400390  0.45498230  0.39600472     0.38130
H2654       H  0.65674870  0.54280741  0.48992743     0.32580
H2655       H  0.78758029  0.55770448  0.48086877     0.31460
H2656       H  0.84491713  0.52628654  0.46983586     0.33140
H2657       H  0.86939528  0.48238292  0.42119914     0.32110
H2658       H  0.67841091  0.50405894  0.52497782     0.36110
H2659       H  0.72271626  0.47710738  0.54447628     0.28840
H2660       H  0.70489596  0.52466683  0.34433416     0.33080
H2661       H  0.84072403  0.48250257  0.37560247     0.35930
H2662       H  0.74944728  0.55534215  0.48176015     0.28540
H2663       H  0.75210505  0.46475175  0.54327887     0.41410
H2664       H  0.63476524  0.47344335  0.42350919     0.31460
H2665       H  0.61896134  0.50071509  0.45110301     0.39080
H2666       H  0.86152530  0.49014646  0.45027034     0.30930
H2667       H  0.69960247  0.44096588  0.39957779     0.30990
H2668       H  0.74116580  0.51863162  0.34047258     0.31260
Zr2669     Zr  0.76103579  0.38838854  0.58177715     2.17510
O2670       O  0.80929108  0.39620055  0.55511295    -0.51100
O2671       O  0.78122851  0.41074039  0.61171405    -0.74300
O2672       O  0.75378695  0.40799045  0.54580357    -0.81090
O2673       O  0.79176580  0.34440167  0.58032757    -0.82830
O2674       O  0.70317014  0.41871027  0.55285759    -0.78460
O2675       O  0.80699055  0.37004424  0.58842854    -0.90090
O2676       O  0.74953958  0.41141112  0.65044302    -0.76050
O2677       O  0.71707619  0.40188735  0.60464929    -0.85540
O2678       O  0.75601776  0.37402227  0.62471889    -0.85230
O2679       O  0.71434628  0.38485480  0.55063663    -0.71990
O2680       O  0.74984230  0.36045027  0.56938036    -0.84130
Zr2681     Zr  0.65283626  0.35638366  0.60436791     2.26420
Zr2682     Zr  0.67012171  0.39808573  0.57497087     2.06270
Zr2683     Zr  0.74359651  0.34578802  0.61215094     2.10050
Zr2684     Zr  0.71169042  0.38764043  0.64717726     1.78760
O2685       O  0.77021173  0.31914068  0.61249499    -0.92930
O2686       O  0.67834569  0.40989912  0.66554776    -0.40740
O2687       O  0.69914958  0.35939093  0.63548686    -0.77370
O2688       O  0.66319859  0.38426489  0.61835160    -0.96060
O2689       O  0.66019120  0.37058524  0.56198729    -0.89360
O2690       O  0.69723485  0.34251158  0.58181481    -0.92200
C2691       C  0.77268480  0.41721270  0.63509750     1.01550
C2692       C  0.81164226  0.35634891  0.57626584     1.14480
C2693       C  0.73048417  0.41766325  0.54003547     1.05260
O2694       O  0.64935120  0.42159360  0.60077511    -0.94360
O2695       O  0.61069011  0.39384609  0.57209242    -0.90100
O2696       O  0.60231648  0.36814930  0.58830304    -0.83250
C2697       C  0.59239901  0.38142895  0.57714113     1.11900
O2698       O  0.74223929  0.36682356  0.50384823    -0.96330
Zr2699     Zr  0.70442024  0.35717269  0.53939205     1.88940
O2700       O  0.63255800  0.33828395  0.56698594    -0.72980
O2701       O  0.64444375  0.40749788  0.53186181    -0.52240
O2702       O  0.69177190  0.35353288  0.48991066    -0.96920
O2703       O  0.72202067  0.32889570  0.53343710    -0.54140
O2704       O  0.64653644  0.35521506  0.53338033    -0.73500
C2705       C  0.63390261  0.34192267  0.54104801     0.98840
O2706       O  0.61114664  0.35387244  0.64041453    -0.62320
O2707       O  0.77402553  0.34684031  0.65609098    -0.57120
O2708       O  0.65414986  0.33045249  0.62688252    -0.93800
O2709       O  0.70790604  0.32301973  0.62907775    -0.92230
O2710       O  0.74809706  0.38075637  0.68578759    -0.92590
O2711       O  0.68127204  0.38051316  0.68897604    -0.91370
C2712       C  0.67690349  0.32038137  0.63291102     1.17690
H2713       H  0.77595331  0.37510483  0.63554290     0.33630
H2714       H  0.64431860  0.38859799  0.62798783     0.44480
H2715       H  0.69228189  0.33112582  0.57845278     0.38010
H2716       H  0.71593493  0.38915920  0.53202312     0.34490
H2717       H  0.69044798  0.41387259  0.68224994     0.26280
H2718       H  0.64325669  0.41954257  0.53364151     0.32220
H2719       H  0.68843243  0.34164771  0.48722733     0.38130
H2720       H  0.74898227  0.39078106  0.69747826     0.32580
H2721       H  0.76921904  0.33630383  0.66523035     0.31460
H2722       H  0.79246746  0.32110362  0.62014132     0.33140
H2723       H  0.73715767  0.32913086  0.51734444     0.32110
H2724       H  0.66024212  0.37606977  0.68183196     0.36110
H2725       H  0.62361240  0.35222690  0.65797148     0.28840
H2726       H  0.81189760  0.40818342  0.55719397     0.33080
H2727       H  0.76426201  0.36547169  0.51230381     0.35930
H2728       H  0.79734750  0.34605923  0.65062883     0.28540
H2729       H  0.60177352  0.36496614  0.64251035     0.41410
H2730       H  0.66711976  0.42980521  0.59976206     0.31460
H2731       H  0.68079788  0.41877201  0.65178267     0.39080
H2732       H  0.70242023  0.32301271  0.52638292     0.30930
H2733       H  0.66077229  0.40543936  0.51701288     0.30990
H2734       H  0.80428686  0.39419952  0.53509652     0.31260
Zr2735     Zr  0.63215675  0.64248298  0.80620413     2.17510
O2736       O  0.66800233  0.64893028  0.84572430    -0.51100
O2737       O  0.65209723  0.66345698  0.77440722    -0.74300
O2738       O  0.67852632  0.62588696  0.79312655    -0.81090
O2739       O  0.57342039  0.67442594  0.82883086    -0.82830
O2740       O  0.66968807  0.59929865  0.80035373    -0.78460
O2741       O  0.62476530  0.66497442  0.83794621    -0.90090
O2742       O  0.62093360  0.66126506  0.73495434    -0.76050
O2743       O  0.62651308  0.62605048  0.76495519    -0.85540
O2744       O  0.58751235  0.65441053  0.78178374    -0.85230
O2745       O  0.62180246  0.61506910  0.82179304    -0.71990
O2746       O  0.58646714  0.64088517  0.83679807    -0.84130
Zr2747     Zr  0.52576679  0.60884447  0.78777147     2.26420
Zr2748     Zr  0.61472003  0.59848610  0.77967154     2.06270
Zr2749     Zr  0.54168891  0.65199935  0.81135516     2.10050
Zr2750     Zr  0.58208303  0.63838195  0.74073881     1.78760
O2751       O  0.52084350  0.66353524  0.85483419    -0.92930
O2752       O  0.61717397  0.62968398  0.70239758    -0.40740
O2753       O  0.53447084  0.63589729  0.77002448    -0.77370
O2754       O  0.57004977  0.61076369  0.75498315    -0.96060
O2755       O  0.57063065  0.59708194  0.81205140    -0.89360
O2756       O  0.53268732  0.62528558  0.82858435    -0.92200
C2757       C  0.64332237  0.66825308  0.74996605     1.01550
C2758       C  0.60104163  0.67493437  0.84135495     1.14480
C2759       C  0.68651907  0.61234690  0.80423286     1.05260
O2760       O  0.64361060  0.59627399  0.73544020    -0.94360
O2761       O  0.57944351  0.57568578  0.76108567    -0.90100
O2762       O  0.52581162  0.58307792  0.76422926    -0.83250
C2763       C  0.54833374  0.57308526  0.75732147     1.11900
O2764       O  0.62050321  0.61857618  0.88744892    -0.96330
Zr2765     Zr  0.57746647  0.61388808  0.85271612     1.88940
O2766       O  0.51514853  0.58785479  0.82294787    -0.72980
O2767       O  0.63376327  0.57100346  0.79032464    -0.52240
O2768       O  0.59636328  0.58701026  0.86726891    -0.96920
O2769       O  0.55899212  0.62628005  0.89632553    -0.54140
O2770       O  0.52736779  0.60049789  0.86354294    -0.73500
C2771       C  0.51700383  0.58829418  0.84972911     0.98840
O2772       O  0.98017322  0.60479201  0.75515488    -0.62320
O2773       O  0.51785400  0.67388559  0.78373503    -0.57120
O2774       O  0.97664245  0.62115063  0.80445125    -0.93800
O2775       O  0.98367045  0.64821716  0.81395527    -0.92230
O2776       O  0.54787248  0.66019669  0.72230786    -0.92590
O2777       O  0.55051458  0.63033307  0.69957772    -0.91370
C2778       C  0.96663844  0.63517325  0.81268932     1.17690
H2779       H  0.59024387  0.66590374  0.77816845     0.33630
H2780       H  0.56503319  0.60444446  0.73837810     0.44480
H2781       H  0.51462213  0.62546072  0.84147518     0.38010
H2782       H  0.63879469  0.61153218  0.83440644     0.34490
H2783       H  0.61579739  0.63866509  0.68869698     0.26280
H2784       H  0.65509477  0.56989971  0.78072632     0.32220
H2785       H  0.58436938  0.58480135  0.88477209     0.38130
H2786       H  0.56110066  0.66516403  0.70730904     0.32580
H2787       H  0.00732850  0.68114171  0.79766054     0.31460
H2788       H  0.51259495  0.65405786  0.86542863     0.33140
H2789       H  0.55453013  0.61694358  0.90878495     0.32110
H2790       H  0.52976642  0.62595784  0.70713370     0.36110
H2791       H  0.96987804  0.61566614  0.75305069     0.28840
H2792       H  0.68962521  0.65216823  0.83862177     0.33080
H2793       H  0.61726959  0.61017268  0.90194618     0.35930
H2794       H  0.53679912  0.68023972  0.77691518     0.28540
H2795       H  0.99053884  0.60281005  0.73677389     0.41410
H2796       H  0.66617924  0.60000203  0.73973796     0.31460
H2797       H  0.63976413  0.63041669  0.70994716     0.39080
H2798       H  0.53707844  0.63079263  0.89196419     0.30930
H2799       H  0.63925450  0.57125388  0.81050096     0.30990
H2800       H  0.67132192  0.63850155  0.85565837     0.31260
Zr2801     Zr  0.62599541  0.38938069  0.05490659     2.17510
O2802       O  0.58082303  0.39572724  0.08638699    -0.51100
O2803       O  0.60730903  0.41063155  0.02282048    -0.74300
O2804       O  0.63187332  0.41253851  0.08549578    -0.81090
O2805       O  0.59486018  0.34547600  0.05491464    -0.82830
O2806       O  0.67710539  0.41977316  0.06418487    -0.78460
O2807       O  0.58048711  0.37101952  0.04519019    -0.90090
O2808       O  0.64376513  0.41120891  0.98716946    -0.76050
O2809       O  0.67254615  0.40170653  0.03363749    -0.85540
O2810       O  0.63415663  0.37408948  0.01262587    -0.85230
O2811       O  0.67080970  0.38684211  0.08840202    -0.71990
O2812       O  0.63684819  0.36165653  0.06838819    -0.84130
Zr2813     Zr  0.73512254  0.35666531  0.03774074     2.26420
Zr2814     Zr  0.71768549  0.39883782  0.06555145     2.06270
Zr2815     Zr  0.64555602  0.34602871  0.02631641     2.10050
Zr2816     Zr  0.68010697  0.38708526  0.99169682     1.78760
O2817       O  0.62173285  0.31878538  0.02878882    -0.92930
O2818       O  0.71579700  0.40873062  0.97495358    -0.40740
O2819       O  0.69123441  0.35904920  0.00438097    -0.77370
O2820       O  0.72677511  0.38430657  0.02265115    -0.96060
O2821       O  0.72640941  0.37159987  0.07962155    -0.89360
O2822       O  0.68955777  0.34345401  0.05912916    -0.92200
C2823       C  0.61895346  0.41705352  0.00055621     1.01550
C2824       C  0.57495829  0.35756151  0.05759059     1.14480
C2825       C  0.65802102  0.42080294  0.08481489     1.05260
O2826       O  0.74495324  0.42487559  0.05805456    -0.94360
O2827       O  0.77692431  0.39661203  0.06216495    -0.90100
O2828       O  0.78392297  0.36955031  0.05369512    -0.83250
C2829       C  0.79448347  0.38368191  0.06061721     1.11900
O2830       O  0.64211515  0.37025187  0.13496532    -0.96330
Zr2831     Zr  0.68027288  0.35917640  0.10069877     1.88940
O2832       O  0.75376265  0.33949474  0.07636019    -0.72980
O2833       O  0.73259402  0.40455602  0.11414988    -0.52240
O2834       O  0.68951117  0.35525253  0.15056336    -0.96920
O2835       O  0.66053860  0.33127608  0.10639973    -0.54140
O2836       O  0.73783270  0.35678762  0.10941111    -0.73500
C2837       C  0.75137410  0.34353928  0.10216044     0.98840
O2838       O  0.77890654  0.35286031  0.00370534    -0.62320
O2839       O  0.61560781  0.34575267  0.98214726    -0.57120
O2840       O  0.73612759  0.33063016  0.01537564    -0.93800
O2841       O  0.68264752  0.32366420  0.00847914    -0.92230
O2842       O  0.64554140  0.38035954  0.95162587    -0.92590
O2843       O  0.71244175  0.37905475  0.95127371    -0.91370
C2844       C  0.71395198  0.32090750  0.00657593     1.17690
H2845       H  0.61509862  0.37492217  0.00067219     0.33630
H2846       H  0.74623862  0.38832033  0.01357019     0.44480
H2847       H  0.69425499  0.33211885  0.06292231     0.38010
H2848       H  0.66625836  0.39235623  0.10581437     0.34490
H2849       H  0.70347994  0.41380436  0.95940261     0.26280
H2850       H  0.73602824  0.41651579  0.11515141     0.32220
H2851       H  0.69554159  0.34361330  0.15261492     0.38130
H2852       H  0.64598534  0.39027272  0.93990722     0.32580
H2853       H  0.62118577  0.33511854  0.97340354     0.31460
H2854       H  0.60096113  0.31941402  0.01807608     0.33140
H2855       H  0.64506115  0.33192124  0.12223336     0.32110
H2856       H  0.73307266  0.37473434  0.95930163     0.36110
H2857       H  0.76752315  0.35129545  0.98555760     0.28840
H2858       H  0.57505263  0.40739300  0.08417422     0.33080
H2859       H  0.62016648  0.36747224  0.12739060     0.35930
H2860       H  0.59230703  0.34468161  0.98750850     0.28540
H2861       H  0.78951267  0.36367942  0.00192330     0.41410
H2862       H  0.74280507  0.42676655  0.03772511     0.31460
H2863       H  0.71556326  0.41706965  0.99004721     0.39080
H2864       H  0.67956172  0.32513515  0.11378390     0.30930
H2865       H  0.71295728  0.40249704  0.12560382     0.30990
H2866       H  0.58937869  0.39466847  0.10569807     0.31260
Zr2867     Zr  0.99655511  0.38931081  0.07718903     2.17510
O2868       O  0.53828925  0.39388171  0.04167027    -0.51100
O2869       O  0.51863293  0.41058947  0.10810774    -0.74300
O2870       O  0.98823801  0.41228156  0.04675229    -0.81090
O2871       O  0.52721979  0.34558003  0.08031168    -0.82830
O2872       O  0.94201487  0.42158260  0.06552564    -0.78460
O2873       O  0.54150882  0.37134033  0.08923869    -0.90090
O2874       O  0.98462053  0.41155749  0.14544597    -0.76050
O2875       O  0.95095540  0.40249513  0.09827076    -0.85540
O2876       O  0.98823226  0.37471441  0.11995275    -0.85230
O2877       O  0.95202320  0.38630199  0.04388560    -0.71990
O2878       O  0.98527008  0.36118018  0.06562398    -0.84130
Zr2879     Zr  0.88700161  0.35727508  0.09524999     2.26420
Zr2880     Zr  0.90582185  0.39880458  0.06656202     2.06270
Zr2881     Zr  0.97556823  0.34631692  0.10811255     2.10050
Zr2882     Zr  0.94360280  0.38877041  0.14069854     1.78760
O2883       O  0.00004930  0.31918220  0.10711005    -0.92930
O2884       O  0.91082417  0.41214594  0.15532233    -0.40740
O2885       O  0.93051870  0.36047344  0.12911751    -0.77370
O2886       O  0.89677076  0.38514382  0.10981831    -0.96060
O2887       O  0.89634593  0.37133904  0.05294162    -0.89360
O2888       O  0.93250585  0.34341284  0.07463870    -0.92200
C2889       C  0.00940064  0.41697049  0.13135368     1.01550
C2890       C  0.54712514  0.35767344  0.07731486     1.14480
C2891       C  0.96372884  0.42186226  0.04677463     1.05260
O2892       O  0.87475542  0.42362812  0.07572998    -0.94360
O2893       O  0.84657315  0.39653469  0.06576153    -0.90100
O2894       O  0.83902613  0.36997878  0.07720364    -0.83250
C2895       C  0.82881138  0.38377516  0.06849874     1.11900
O2896       O  0.98204138  0.36857113  0.99886127    -0.96330
Zr2897     Zr  0.94271727  0.35834715  0.03265970     1.88940
O2898       O  0.87067931  0.33821079  0.05763251    -0.72980
O2899       O  0.89804952  0.40451391  0.01708115    -0.52240
O2900       O  0.93354717  0.35422322  0.98274136    -0.96920
O2901       O  0.96369360  0.33058113  0.02793292    -0.54140
O2902       O  0.88580689  0.35449488  0.02341231    -0.73500
C2903       C  0.87404433  0.34108743  0.03151745     0.98840
O2904       O  0.84205296  0.35498172  0.12848599    -0.62320
O2905       O  0.00331026  0.34682116  0.15330257    -0.57120
O2906       O  0.88328927  0.33180952  0.11885146    -0.93800
O2907       O  0.93637343  0.32412690  0.12523779    -0.92230
O2908       O  0.97585691  0.38116210  0.18149685    -0.92590
O2909       O  0.90946152  0.38340451  0.18116162    -0.91370
C2910       C  0.90477115  0.32169643  0.12734109     1.17690
H2911       H  0.00727212  0.37560444  0.13194541     0.33630
H2912       H  0.87737905  0.38948977  0.11866725     0.44480
H2913       H  0.92801402  0.33199391  0.07109460     0.38010
H2914       H  0.95618821  0.39160771  0.02632231     0.34490
H2915       H  0.92345533  0.41721332  0.17083775     0.26280
H2916       H  0.88104008  0.39664424  0.01084586     0.32220
H2917       H  0.93094189  0.34228384  0.98017838     0.38130
H2918       H  0.97778480  0.39136132  0.19264263     0.32580
H2919       H  0.49740174  0.33630635  0.16203767     0.31460
H2920       H  0.52067790  0.32021531  0.11795814     0.33140
H2921       H  0.97978530  0.33117587  0.01256236     0.32110
H2922       H  0.88952526  0.37817767  0.17330016     0.36110
H2923       H  0.85284652  0.35404398  0.14698342     0.28840
H2924       H  0.54476870  0.40553443  0.04224167     0.33080
H2925       H  0.00324870  0.36381444  0.00479726     0.35930
H2926       H  0.52687237  0.34574208  0.14881173     0.28540
H2927       H  0.83165760  0.36590273  0.12912382     0.41410
H2928       H  0.87689878  0.42541914  0.09613201     0.31460
H2929       H  0.91276335  0.41999462  0.13978284     0.39080
H2930       H  0.94523698  0.32414892  0.02007128     0.30930
H2931       H  0.88696852  0.41526652  0.01670073     0.30990
H2932       H  0.52725609  0.39228229  0.02337720     0.31260
Zr2933     Zr  0.88167445  0.63959345  0.30879666     2.17510
O2934       O  0.91924627  0.64543603  0.34713953    -0.51100
O2935       O  0.90375056  0.65987474  0.27673227    -0.74300
O2936       O  0.92605350  0.62206365  0.29350367    -0.81090
O2937       O  0.82314347  0.67020831  0.33842023    -0.82830
O2938       O  0.91719348  0.59546558  0.29992591    -0.78460
O2939       O  0.87766341  0.66417012  0.33680991    -0.90090
O2940       O  0.87112741  0.65892317  0.23813358    -0.76050
O2941       O  0.87420779  0.62373507  0.26704645    -0.85540
O2942       O  0.83638883  0.65214075  0.28635629    -0.85230
O2943       O  0.87090556  0.61197385  0.32326198    -0.71990
O2944       O  0.83719654  0.63794604  0.34073447    -0.84130
Zr2945     Zr  0.77436350  0.60637630  0.29158923     2.26420
Zr2946     Zr  0.86182581  0.59587212  0.28058194     2.06270
Zr2947     Zr  0.79117260  0.64919336  0.31697091     2.10050
Zr2948     Zr  0.82958173  0.63693878  0.24464904     1.78760
O2949       O  0.76889570  0.65830813  0.36157909    -0.92930
O2950       O  0.86084096  0.62817882  0.20401657    -0.40740
O2951       O  0.78300303  0.63374351  0.27506291    -0.77370
O2952       O  0.81709173  0.60896370  0.25751491    -0.96060
O2953       O  0.81956131  0.59425163  0.31453369    -0.89360
O2954       O  0.78224378  0.62221648  0.33289130    -0.92200
C2955       C  0.89515344  0.66505941  0.25251671     1.01550
C2956       C  0.85315067  0.67288001  0.34435674     1.14480
C2957       C  0.93424387  0.60837592  0.30405128     1.05260
O2958       O  0.88907847  0.59433855  0.23552463    -0.94360
O2959       O  0.82507578  0.57334899  0.26204397    -0.90100
O2960       O  0.77181676  0.58066201  0.26785195    -0.83250
C2961       C  0.79373553  0.57071285  0.25952910     1.11900
O2962       O  0.87278784  0.61461066  0.38899335    -0.96330
Zr2963     Zr  0.82806520  0.61073216  0.35553612     1.88940
O2964       O  0.76386476  0.58543541  0.32721140    -0.72980
O2965       O  0.88014967  0.56798690  0.28894146    -0.52240
O2966       O  0.84744263  0.58388400  0.36981079    -0.96920
O2967       O  0.81109061  0.62363399  0.39917549    -0.54140
O2968       O  0.77900167  0.59709354  0.36810547    -0.73500
C2969       C  0.76670065  0.58545477  0.35400137     0.98840
O2970       O  0.72827523  0.60288528  0.25925218    -0.62320
O2971       O  0.76969478  0.67275779  0.29210582    -0.57120
O2972       O  0.72589987  0.61872446  0.30844145    -0.93800
O2973       O  0.73270760  0.64568609  0.31862302    -0.92230
O2974       O  0.79662723  0.66017804  0.23001517    -0.92590
O2975       O  0.79460173  0.63093488  0.20451322    -0.91370
C2976       C  0.71563452  0.63265093  0.31666316     1.17690
H2977       H  0.83994070  0.66361820  0.28300575     0.33630
H2978       H  0.81127683  0.60295153  0.24076123     0.44480
H2979       H  0.76426706  0.62215121  0.34589572     0.38010
H2980       H  0.88816534  0.60809154  0.33528630     0.34490
H2981       H  0.86012542  0.63762756  0.19122988     0.26280
H2982       H  0.90109288  0.56688042  0.27874433     0.32220
H2983       H  0.83558425  0.58156524  0.38733849     0.38130
H2984       H  0.80958131  0.66543230  0.21513200     0.32580
H2985       H  0.75614614  0.67860617  0.30606721     0.31460
H2986       H  0.75794254  0.66882329  0.35753875     0.33140
H2987       H  0.80561861  0.61445440  0.41167924     0.32110
H2988       H  0.77440499  0.62630408  0.21267336     0.36110
H2989       H  0.71819823  0.61382933  0.25744435     0.28840
H2990       H  0.94044498  0.64798578  0.33843650     0.33080
H2991       H  0.86817885  0.60711829  0.40463394     0.35930
H2992       H  0.78885734  0.67997631  0.28934892     0.28540
H2993       H  0.73836246  0.60099197  0.24073089     0.41410
H2994       H  0.91179904  0.59799294  0.23938560     0.31460
H2995       H  0.88386673  0.62779323  0.21059252     0.39080
H2996       H  0.78972500  0.62876665  0.39482215     0.30930
H2997       H  0.88629412  0.56770155  0.30897486     0.30990
H2998       H  0.92217614  0.63497450  0.35704948     0.31260
Zr2999     Zr  0.51642266  0.63866965  0.32374166     2.17510
O3000       O  0.97959492  0.64527896  0.28533903    -0.51100
O3001       O  0.49410405  0.65898274  0.35576085    -0.74300
O3002       O  0.96964241  0.62198065  0.33441972    -0.81090
O3003       O  0.57558502  0.66951300  0.29857975    -0.82830
O3004       O  0.97913242  0.59542485  0.32721168    -0.78460
O3005       O  0.52147181  0.66269183  0.29599856    -0.90090
O3006       O  0.52358182  0.65732526  0.39605686    -0.76050
O3007       O  0.52050847  0.62265998  0.36507340    -0.85540
O3008       O  0.55996201  0.65098642  0.34925942    -0.85230
O3009       O  0.52770919  0.61137227  0.30769917    -0.71990
O3010       O  0.56284166  0.63736041  0.29383568    -0.84130
Zr3011     Zr  0.62196673  0.60543703  0.34488524     2.26420
Zr3012     Zr  0.53293350  0.59508687  0.34996093     2.06270
Zr3013     Zr  0.60679925  0.64853896  0.32062866     2.10050
Zr3014     Zr  0.56420227  0.63526525  0.39031564     1.78760
O3015       O  0.63222175  0.65717075  0.27720433    -0.92930
O3016       O  0.53025849  0.62654105  0.42913824    -0.40740
O3017       O  0.61251871  0.63267639  0.36205031    -0.77370
O3018       O  0.57642836  0.60752257  0.37627853    -0.96060
O3019       O  0.57828727  0.59363694  0.31882417    -0.89360
O3020       O  0.61722925  0.62170753  0.30405509    -0.92200
C3021       C  0.50126176  0.66382414  0.38058516     1.01550
C3022       C  0.54610490  0.67167075  0.29044614     1.14480
C3023       C  0.96215640  0.60834997  0.32311884     1.05260
O3024       O  0.50144715  0.59347110  0.39291233    -0.94360
O3025       O  0.56709392  0.57247928  0.36995195    -0.90100
O3026       O  0.62087161  0.57971245  0.36806429    -0.83250
C3027       C  0.59801673  0.56984920  0.37454350     1.11900
O3028       O  0.53168739  0.61417919  0.24206131    -0.96330
Zr3029     Zr  0.57340332  0.61030493  0.27814067     1.88940
O3030       O  0.63434890  0.58454949  0.30936378    -0.72980
O3031       O  0.51473301  0.56737799  0.33920146    -0.52240
O3032       O  0.55617123  0.58329634  0.26207252    -0.96920
O3033       O  0.59326335  0.62317288  0.23571531    -0.54140
O3034       O  0.62456626  0.59746437  0.26896310    -0.73500
C3035       C  0.63373121  0.58508920  0.28256570     0.98840
O3036       O  0.66597085  0.60105731  0.37889320    -0.62320
O3037       O  0.62612816  0.67252251  0.34624843    -0.57120
O3038       O  0.67149303  0.61848159  0.33175915    -0.93800
O3039       O  0.66514502  0.64559315  0.32314793    -0.92230
O3040       O  0.59672314  0.65812075  0.40788536    -0.92590
O3041       O  0.59662370  0.62826544  0.43134046    -0.91370
C3042       C  0.68214989  0.63257886  0.32499969     1.17690
H3043       H  0.55650233  0.66245927  0.35296694     0.33630
H3044       H  0.58072645  0.60131513  0.39297905     0.44480
H3045       H  0.63632815  0.62199680  0.29228419     0.38010
H3046       H  0.51125484  0.60779028  0.29451365     0.34490
H3047       H  0.53053331  0.63590781  0.44235729     0.26280
H3048       H  0.99293247  0.56636315  0.34801220     0.32220
H3049       H  0.56841071  0.58142164  0.24452973     0.38130
H3050       H  0.58334778  0.66299985  0.42299451     0.32580
H3051       H  0.63938225  0.67862591  0.33254816     0.31460
H3052       H  0.64220844  0.66792086  0.28156453     0.33140
H3053       H  0.60023927  0.61398883  0.22354226     0.32110
H3054       H  0.61742217  0.62395720  0.42367512     0.36110
H3055       H  0.67638572  0.61185740  0.38191007     0.28840
H3056       H  0.95815551  0.64767407  0.29383458     0.33080
H3057       H  0.53705150  0.60634220  0.22690521     0.35930
H3058       H  0.60640771  0.67936947  0.34902741     0.28540
H3059       H  0.65477064  0.59900502  0.39683708     0.41410
H3060       H  0.47907585  0.59697642  0.38755412     0.31460
H3061       H  0.50764302  0.62638276  0.42155655     0.39080
H3062       H  0.61395015  0.62861167  0.24138204     0.30930
H3063       H  0.01028084  0.56728803  0.31884208     0.30990
H3064       H  0.97679855  0.63497510  0.27465121     0.31260
Zr3065     Zr  0.88942690  0.38708813  0.55562372     2.17510
O3066       O  0.85518159  0.38868782  0.59745824    -0.51100
O3067       O  0.86581373  0.40795400  0.52501410    -0.74300
O3068       O  0.89155592  0.41206473  0.58150580    -0.81090
O3069       O  0.85869818  0.34401445  0.55279094    -0.82830
O3070       O  0.94564250  0.41605779  0.59168794    -0.78460
O3071       O  0.84379135  0.36955497  0.54325779    -0.90090
O3072       O  0.90137965  0.40942503  0.48881800    -0.76050
O3073       O  0.93500163  0.40068509  0.53563721    -0.85540
O3074       O  0.89786494  0.37239892  0.51285155    -0.85230
O3075       O  0.93368402  0.38447525  0.58853615    -0.71990
O3076       O  0.90091140  0.35926598  0.56730639    -0.84130
Zr3077     Zr  0.99936866  0.35516491  0.53959558     2.26420
Zr3078     Zr  0.98019407  0.39717280  0.56702153     2.06270
Zr3079     Zr  0.91053169  0.34424521  0.52502578     2.10050
Zr3080     Zr  0.94276267  0.38655987  0.49316740     1.78760
O3081       O  0.88459061  0.31743187  0.52480779    -0.92930
O3082       O  0.97470509  0.40992534  0.47769749    -0.40740
O3083       O  0.95621665  0.35836355  0.50515545    -0.77370
O3084       O  0.98953945  0.38284877  0.52423034    -0.96060
O3085       O  0.98912668  0.36984190  0.58123366    -0.89360
O3086       O  0.95303823  0.34170091  0.55915940    -0.92200
C3087       C  0.87581287  0.41463686  0.50236728     1.01550
C3088       C  0.83852561  0.35605308  0.55554836     1.14480
C3089       C  0.91508580  0.41891425  0.59461536     1.05260
O3090       O  0.49814908  0.42138688  0.54219050    -0.94360
O3091       O  0.53969148  0.39375804  0.57072565    -0.90100
O3092       O  0.54838650  0.36725038  0.55858569    -0.83250
C3093       C  0.55804975  0.38110710  0.56804721     1.11900
O3094       O  0.89252409  0.35747410  0.62880391    -0.96330
Zr3095     Zr  0.94262045  0.35698034  0.60118199     1.88940
O3096       O  0.51432145  0.33662002  0.57836714    -0.72980
O3097       O  0.00637997  0.40721068  0.60975294    -0.52240
O3098       O  0.94894129  0.36885066  0.64773279    -0.96920
O3099       O  0.93421286  0.32897974  0.61707229    -0.54140
O3100       O  0.99788229  0.35198156  0.61422500    -0.73500
C3101       C  0.51124304  0.33921194  0.60478843     0.98840
O3102       O  0.54453989  0.35246675  0.50664829    -0.62320
O3103       O  0.88458811  0.34458785  0.47907018    -0.57120
O3104       O  0.00226975  0.32920342  0.51652707    -0.93800
O3105       O  0.94917691  0.32160935  0.50949825    -0.92230
O3106       O  0.91082705  0.37843113  0.45225881    -0.92590
O3107       O  0.97710277  0.38080301  0.45283278    -0.91370
C3108       C  0.98068228  0.31903042  0.50803531     1.17690
H3109       H  0.87890270  0.37321978  0.50078138     0.33630
H3110       H  0.50903941  0.38706173  0.51546631     0.44480
H3111       H  0.95724205  0.33030524  0.56272388     0.38010
H3112       H  0.92837335  0.38956680  0.60616706     0.34490
H3113       H  0.96406513  0.41333560  0.46004153     0.26280
H3114       H  0.50581828  0.41927890  0.60854880     0.32220
H3115       H  0.95634771  0.35967212  0.65954632     0.38130
H3116       H  0.90797474  0.38862464  0.44151201     0.32580
H3117       H  0.89053576  0.33396761  0.47045799     0.31460
H3118       H  0.86378703  0.31885360  0.51437717     0.33140
H3119       H  0.94155643  0.32910669  0.63682242     0.32110
H3120       H  0.49685826  0.37551513  0.46074887     0.36110
H3121       H  0.53385392  0.35110329  0.48815248     0.28840
H3122       H  0.84377790  0.39934007  0.59834594     0.33080
H3123       H  0.89567382  0.34939742  0.64386543     0.35930
H3124       H  0.86082617  0.34370016  0.48285877     0.28540
H3125       H  0.55464291  0.36344819  0.50575983     0.41410
H3126       H  0.98070524  0.42955214  0.54562014     0.31460
H3127       H  0.96926892  0.41875950  0.49112309     0.39080
H3128       H  0.95052578  0.32206195  0.60741923     0.30930
H3129       H  0.99106799  0.40446231  0.62500280     0.30990
H3130       H  0.87028075  0.38873280  0.61370380     0.31260
Zr3131     Zr  0.76771742  0.64398354  0.82332023     2.17510
O3132       O  0.72853567  0.65212719  0.78742021    -0.51100
O3133       O  0.74532351  0.66540738  0.85407349    -0.74300
O3134       O  0.72152619  0.62660931  0.83416323    -0.81090
O3135       O  0.83196336  0.67156642  0.79101923    -0.82830
O3136       O  0.73116173  0.59991248  0.82850787    -0.78460
O3137       O  0.77916482  0.66304038  0.78595082    -0.90090
O3138       O  0.77278280  0.66332762  0.89531034    -0.76050
O3139       O  0.77154393  0.62807860  0.86498314    -0.85540
O3140       O  0.81092099  0.65676328  0.84892192    -0.85230
O3141       O  0.77898688  0.61615786  0.80907500    -0.71990
O3142       O  0.81538855  0.64136073  0.79547568    -0.84130
Zr3143     Zr  0.87313002  0.61019602  0.84614707     2.26420
Zr3144     Zr  0.78458505  0.60013417  0.85182506     2.06270
Zr3145     Zr  0.85904478  0.65314952  0.82175753     2.10050
Zr3146     Zr  0.81437616  0.64120255  0.89039863     1.78760
O3147       O  0.88999630  0.66695009  0.78546308    -0.92930
O3148       O  0.77935285  0.63249755  0.92856365    -0.40740
O3149       O  0.86391386  0.63758702  0.86341946    -0.77370
O3150       O  0.82763751  0.61316309  0.87763365    -0.96060
O3151       O  0.82955725  0.59800289  0.82057943    -0.89360
O3152       O  0.86842382  0.62616029  0.80500386    -0.92200
C3153       C  0.75105335  0.67008791  0.87937694     1.01550
C3154       C  0.80397874  0.67175685  0.77919140     1.14480
C3155       C  0.71417421  0.61272823  0.82358043     1.05260
O3156       O  0.75553335  0.59954948  0.89608637    -0.94360
O3157       O  0.82034428  0.57705837  0.86951875    -0.90100
O3158       O  0.87347465  0.58534326  0.87144050    -0.83250
C3159       C  0.85117319  0.57478227  0.87554416     1.11900
O3160       O  0.78300708  0.61866403  0.74352801    -0.96330
Zr3161     Zr  0.82457557  0.61440441  0.77958759     1.88940
O3162       O  0.88296868  0.58836341  0.81127731    -0.72980
O3163       O  0.76356531  0.57244450  0.84561930    -0.52240
O3164       O  0.80606625  0.58744132  0.76436888    -0.96920
O3165       O  0.84435828  0.62695654  0.73686576    -0.54140
O3166       O  0.87512375  0.60107125  0.77050864    -0.73500
C3167       C  0.88299205  0.58861925  0.78441896     0.98840
O3168       O  0.91774983  0.60504491  0.87907479    -0.62320
O3169       O  0.87291599  0.67595799  0.85253099    -0.57120
O3170       O  0.92328291  0.62164981  0.83097402    -0.93800
O3171       O  0.91712103  0.64853027  0.82074816    -0.92230
O3172       O  0.84674797  0.66406229  0.90812645    -0.92590
O3173       O  0.84481125  0.63499691  0.93289494    -0.91370
C3174       C  0.93383015  0.63542277  0.82262049     1.17690
H3175       H  0.80755335  0.66829818  0.85212040     0.33630
H3176       H  0.83188760  0.60715662  0.89456413     0.44480
H3177       H  0.88696584  0.62616435  0.79261841     0.38010
H3178       H  0.76290268  0.61239366  0.79571189     0.34490
H3179       H  0.77929788  0.64185527  0.94180228     0.26280
H3180       H  0.74161651  0.57245057  0.85434572     0.32220
H3181       H  0.81784204  0.58534080  0.74666614     0.38130
H3182       H  0.83241354  0.66956198  0.92191792     0.32580
H3183       H  0.89670536  0.67765241  0.84978880     0.31460
H3184       H  0.89845067  0.67706623  0.79439856     0.33140
H3185       H  0.85246564  0.61774390  0.72529321     0.32110
H3186       H  0.86547916  0.63001570  0.92621921     0.36110
H3187       H  0.93558696  0.60000180  0.86801052     0.28840
H3188       H  0.70702322  0.65343267  0.79635745     0.33080
H3189       H  0.78760256  0.61049414  0.72870015     0.35930
H3190       H  0.86250847  0.68555013  0.84366585     0.28540
H3191       H  0.92614457  0.61596155  0.88459006     0.41410
H3192       H  0.73245196  0.60190355  0.89107183     0.31460
H3193       H  0.75693264  0.63236700  0.92056719     0.39080
H3194       H  0.86436865  0.63296711  0.74262410     0.30930
H3195       H  0.75934716  0.57121145  0.82531855     0.30990
H3196       H  0.72634730  0.64249675  0.77491431     0.31260
Zr3197     Zr  0.51121481  0.73348655  0.24037341     2.17510
O3198       O  0.51719999  0.72171404  0.28683288    -0.51100
O3199       O  0.96973613  0.71136456  0.24184853    -0.74300
O3200       O  0.98779604  0.75060268  0.27628254    -0.81090
O3201       O  0.56768699  0.69976759  0.20954192    -0.82830
O3202       O  0.97209132  0.77467902  0.25701106    -0.78460
O3203       O  0.56262568  0.71961609  0.23993361    -0.90090
O3204       O  0.94336936  0.71059174  0.19993094    -0.76050
O3205       O  0.96965601  0.74651230  0.21360321    -0.85540
O3206       O  0.51009083  0.71881837  0.19704664    -0.85230
O3207       O  0.52951411  0.76155990  0.23625151    -0.71990
O3208       O  0.56513975  0.73601748  0.22035389    -0.84130
Zr3209     Zr  0.54063637  0.76162556  0.14539883     2.26420
Zr3210     Zr  0.98826199  0.77408974  0.20759128     2.06270
Zr3211     Zr  0.56378472  0.72138119  0.17648341     2.10050
Zr3212     Zr  0.96851403  0.73170808  0.17057401     1.78760
O3213       O  0.62246841  0.71736432  0.18265177    -0.92930
O3214       O  0.91137496  0.73993616  0.17502331    -0.40740
O3215       O  0.52170770  0.73406550  0.14928203    -0.77370
O3216       O  0.98586339  0.75963076  0.16391202    -0.96060
O3217       O  0.54196835  0.77637943  0.18826032    -0.89360
O3218       O  0.58227694  0.74890045  0.17202388    -0.92200
C3219       C  0.94823914  0.70526299  0.22484498     1.01550
C3220       C  0.56206321  0.70451883  0.23420866     1.14480
C3221       C  0.97480899  0.76478046  0.27761381     1.05260
O3222       O  0.93081208  0.77532828  0.19377796    -0.94360
O3223       O  0.99942298  0.79749748  0.17717341    -0.90100
O3224       O  0.02002800  0.78806972  0.13602923    -0.83250
C3225       C  0.00923234  0.79934473  0.15186267     1.11900
O3226       O  0.60160918  0.76173937  0.26364920    -0.96330
Zr3227     Zr  0.58296033  0.76360463  0.21529122     1.88940
O3228       O  0.59091516  0.77789191  0.14051351    -0.72980
O3229       O  0.97698645  0.80155131  0.22528841    -0.52240
O3230       O  0.58289313  0.79109646  0.23519085    -0.96920
O3231       O  0.63889746  0.75354172  0.22018238    -0.54140
O3232       O  0.61526528  0.78006671  0.18318698    -0.73500
C3233       C  0.61354584  0.78327558  0.15701594     0.98840
O3234       O  0.02032881  0.76771109  0.09856760    -0.62320
O3235       O  0.55436550  0.69545686  0.15236917    -0.57120
O3236       O  0.56563531  0.74464281  0.11043572    -0.93800
O3237       O  0.58101100  0.72024206  0.12860158    -0.92230
O3238       O  0.96786798  0.70709208  0.14169863    -0.92590
O3239       O  0.94275784  0.73607244  0.12523910    -0.91370
C3240       C  0.57802148  0.73036251  0.10863701     1.17690
H3241       H  0.50557900  0.70733233  0.19930822     0.33630
H3242       H  0.97073376  0.76502577  0.15143239     0.44480
H3243       H  0.60322600  0.74917517  0.16274085     0.38010
H3244       H  0.53167304  0.76694878  0.25416793     0.34490
H3245       H  0.89864559  0.73031920  0.16852244     0.26280
H3246       H  0.95451827  0.80119128  0.23298199     0.32220
H3247       H  0.60590563  0.79484624  0.23392444     0.38130
H3248       H  0.94524858  0.70282194  0.14325378     0.32580
H3249       H  0.57353470  0.68858757  0.15712454     0.31460
H3250       H  0.62739638  0.70734150  0.17175674     0.33140
H3251       H  0.65258414  0.76348958  0.22198851     0.32110
H3252       H  0.96078003  0.73991458  0.11317041     0.36110
H3253       H  0.03999934  0.77003312  0.08722429     0.28840
H3254       H  0.49488625  0.72137092  0.29483900     0.33080
H3255       H  0.61824106  0.77045183  0.26608834     0.35930
H3256       H  0.53573795  0.69035364  0.16220263     0.28540
H3257       H  0.01162410  0.75725611  0.09108659     0.41410
H3258       H  0.91861780  0.77358959  0.21133872     0.31460
H3259       H  0.90735422  0.74045698  0.19539300     0.39080
H3260       H  0.64449835  0.74899695  0.20159123     0.30930
H3261       H  0.49159021  0.80310043  0.24168528     0.30990
H3262       H  0.52915511  0.73000526  0.29809717     0.31260
Zr3263     Zr  0.63093901  0.73696819  0.89361150     2.17510
O3264       O  0.62448989  0.72440170  0.84747261    -0.51100
O3265       O  0.67382944  0.71554428  0.89128680    -0.74300
O3266       O  0.65252482  0.75359979  0.85671511    -0.81090
O3267       O  0.58388397  0.70315688  0.92690179    -0.82830
O3268       O  0.66594228  0.77859383  0.87436267    -0.78460
O3269       O  0.58165189  0.72138227  0.89366096    -0.90090
O3270       O  0.70247875  0.71624167  0.93207206    -0.76050
O3271       O  0.67255930  0.75156305  0.91814419    -0.85540
O3272       O  0.63541522  0.72327911  0.93740393    -0.85230
O3273       O  0.61053143  0.76471539  0.89730686    -0.71990
O3274       O  0.57748774  0.73877020  0.91495683    -0.84130
Zr3275     Zr  0.60336868  0.76716468  0.98882629     2.26420
Zr3276     Zr  0.65189732  0.77883513  0.92409286     2.06270
Zr3277     Zr  0.58238780  0.72557670  0.95942920     2.10050
Zr3278     Zr  0.67724956  0.73775396  0.96145750     1.78760
O3279       O  0.52284292  0.72406219  0.95726950    -0.92930
O3280       O  0.73316071  0.74716224  0.95386883    -0.40740
O3281       O  0.62476123  0.74002607  0.98370447    -0.77370
O3282       O  0.65779622  0.76545258  0.96827971    -0.96060
O3283       O  0.59873403  0.78051428  0.94508410    -0.89360
O3284       O  0.56145231  0.75280219  0.96428839    -0.92200
C3285       C  0.69666580  0.71020266  0.90758447     1.01550
C3286       C  0.58499108  0.70673681  0.90128168     1.14480
C3287       C  0.66403109  0.76803093  0.85445481     1.05260
O3288       O  0.70895624  0.78205546  0.93829763    -0.94360
O3289       O  0.63373280  0.80232821  0.95201823    -0.90100
O3290       O  0.63562027  0.79132424  0.99470399    -0.83250
C3291       C  0.63226979  0.80349552  0.97871624     1.11900
O3292       O  0.53715903  0.76201255  0.87255063    -0.96330
Zr3293     Zr  0.55783192  0.76614598  0.91998247     1.88940
O3294       O  0.55111772  0.78263383  0.99332791    -0.72980
O3295       O  0.66445695  0.80589529  0.90589178    -0.52240
O3296       O  0.55523675  0.79276162  0.89760789    -0.96920
O3297       O  0.50221541  0.75525929  0.91844677    -0.54140
O3298       O  0.52554373  0.78348376  0.95112855    -0.73500
C3299       C  0.52768466  0.78742747  0.97706355     0.98840
O3300       O  0.60632010  0.77961684  0.03532586    -0.62320
O3301       O  0.57492849  0.69933261  0.98239783    -0.57120
O3302       O  0.59779692  0.74772306  0.02651746    -0.93800
O3303       O  0.58461091  0.72263851  0.00938001    -0.92230
O3304       O  0.68116720  0.71416185  0.99197613    -0.92590
O3305       O  0.70510679  0.74348750  0.00557633    -0.91370
C3306       C  0.59108828  0.73254810  0.02932918     1.17690
H3307       H  0.64105080  0.71186928  0.93569632     0.33630
H3308       H  0.67389285  0.77102511  0.97974560     0.44480
H3309       H  0.54103611  0.75295801  0.97439866     0.38010
H3310       H  0.60727092  0.76958769  0.87920996     0.34490
H3311       H  0.74718832  0.73813957  0.96064500     0.26280
H3312       H  0.68643475  0.80504774  0.89732540     0.32220
H3313       H  0.53201150  0.79614345  0.89906137     0.38130
H3314       H  0.70362601  0.70990651  0.98913751     0.32580
H3315       H  0.55631383  0.69395676  0.97266922     0.31460
H3316       H  0.51608555  0.72232095  0.97686281     0.33140
H3317       H  0.48819106  0.76473009  0.91376535     0.32110
H3318       H  0.68750918  0.74729703  0.01821587     0.36110
H3319       H  0.58588666  0.77646485  0.04497532     0.28840
H3320       H  0.64662302  0.72414225  0.83909487     0.33080
H3321       H  0.52019260  0.77048921  0.86971672     0.35930
H3322       H  0.59440433  0.69274138  0.97736202     0.28540
H3323       H  0.62411318  0.77385792  0.04537859     0.41410
H3324       H  0.72160816  0.77962720  0.92116416     0.31460
H3325       H  0.73601125  0.74696743  0.93333831     0.39080
H3326       H  0.49677541  0.75283820  0.93811071     0.30930
H3327       H  0.64912918  0.80757910  0.89006662     0.30990
H3328       H  0.61191343  0.73235062  0.83620243     0.31260
Zr3329     Zr  0.74335149  0.74133916  0.73692328     2.17510
O3330       O  0.76754942  0.73774067  0.78318184    -0.51100
O3331       O  0.70377226  0.71887644  0.74042938    -0.74300
O3332       O  0.71108208  0.75424903  0.77317689    -0.81090
O3333       O  0.80115003  0.71084822  0.70278408    -0.82830
O3334       O  0.69644478  0.77943175  0.75781962    -0.78460
O3335       O  0.77469371  0.71725675  0.74324661    -0.90090
O3336       O  0.67911115  0.71599246  0.69797518    -0.76050
O3337       O  0.69766365  0.75253827  0.71299133    -0.85540
O3338       O  0.74267771  0.72776327  0.69281388    -0.85230
O3339       O  0.75622472  0.76992287  0.73434133    -0.71990
O3340       O  0.79596365  0.74623281  0.71604389    -0.84130
Zr3341     Zr  0.76135791  0.77321604  0.64333889     2.26420
Zr3342     Zr  0.71079374  0.78094271  0.70860738     2.06270
Zr3343     Zr  0.79380955  0.73337011  0.67101456     2.10050
Zr3344     Zr  0.69727809  0.73878869  0.66896504     1.78760
O3345       O  0.85339124  0.73349250  0.67373173    -0.92930
O3346       O  0.63911407  0.74401921  0.67608254    -0.40740
O3347       O  0.74840764  0.74468099  0.64632187    -0.77370
O3348       O  0.70797933  0.76739405  0.66397815    -0.96060
O3349       O  0.76301616  0.78649021  0.68763197    -0.89360
O3350       O  0.80687099  0.76172752  0.66720245    -0.92200
C3351       C  0.68472653  0.71133188  0.72313268     1.01550
C3352       C  0.79194114  0.70797326  0.72775559     1.14480
C3353       C  0.69818466  0.76837824  0.77654767     1.05260
O3354       O  0.65240199  0.78106371  0.69787943    -0.94360
O3355       O  0.71607916  0.80492076  0.67954064    -0.90100
O3356       O  0.71746826  0.79208824  0.63820531    -0.83250
C3357       C  0.71625930  0.80494064  0.65289028     1.11900
O3358       O  0.83093326  0.77042966  0.75843539    -0.96330
Zr3359     Zr  0.80784164  0.77479663  0.71198710     1.88940
O3360       O  0.80487032  0.79453427  0.64148254    -0.72980
O3361       O  0.69916769  0.80753007  0.72974286    -0.52240
O3362       O  0.80501354  0.80027767  0.73851148    -0.96920
O3363       O  0.86600335  0.76800462  0.70999724    -0.54140
O3364       O  0.83229337  0.79569479  0.68283962    -0.73500
C3365       C  0.82703535  0.80065059  0.65789100     0.98840
O3366       O  0.75911360  0.78364330  0.59572025    -0.62320
O3367       O  0.79544429  0.70729076  0.64606058    -0.57120
O3368       O  0.77741024  0.75612951  0.60435870    -0.93800
O3369       O  0.80187003  0.73321275  0.62094476    -0.92230
O3370       O  0.69999677  0.71489147  0.63845617    -0.92590
O3371       O  0.66845583  0.74247305  0.62477903    -0.91370
C3372       C  0.79255204  0.74257249  0.60115344     1.17690
H3373       H  0.74020675  0.71608288  0.69436503     0.33630
H3374       H  0.68891326  0.77100679  0.65369605     0.44480
H3375       H  0.82688399  0.76336345  0.65690557     0.38010
H3376       H  0.75754506  0.77466107  0.75285430     0.34490
H3377       H  0.62804168  0.73388744  0.66966927     0.26280
H3378       H  0.67703886  0.80664839  0.73799208     0.32220
H3379       H  0.82723619  0.80506706  0.73722939     0.38130
H3380       H  0.67863954  0.70933744  0.64082844     0.32580
H3381       H  0.81600677  0.70192838  0.65211339     0.31460
H3382       H  0.86050103  0.72780928  0.65646494     0.33140
H3383       H  0.87748509  0.77824428  0.71524649     0.32110
H3384       H  0.68476548  0.74769539  0.61246650     0.36110
H3385       H  0.73634983  0.78173165  0.58919894     0.28840
H3386       H  0.75012109  0.73285134  0.79476814     0.33080
H3387       H  0.84737744  0.77918558  0.76131716     0.35930
H3388       H  0.77766315  0.70064891  0.65422947     0.28540
H3389       H  0.76105884  0.79566394  0.59751927     0.41410
H3390       H  0.64186406  0.77720982  0.71521480     0.31460
H3391       H  0.63621394  0.74407402  0.69660731     0.39080
H3392       H  0.87092835  0.76650499  0.68992030     0.30930
H3393       H  0.71436920  0.80859574  0.74585189     0.30990
H3394       H  0.77070728  0.74891183  0.79081854     0.31260
Zr3395     Zr  0.89680934  0.73613555  0.39223868     2.17510
O3396       O  0.88900899  0.72440568  0.34563628    -0.51100
O3397       O  0.93382431  0.71241264  0.39055248    -0.74300
O3398       O  0.92362831  0.75211147  0.35640603    -0.81090
O3399       O  0.83620746  0.70552439  0.42294509    -0.82830
O3400       O  0.94739453  0.77453430  0.37629551    -0.78460
O3401       O  0.84382160  0.72381477  0.39032712    -0.90090
O3402       O  0.95988389  0.71035092  0.43246172    -0.76050
O3403       O  0.94132868  0.74655033  0.41914097    -0.85540
O3404       O  0.89473586  0.72181120  0.43561540    -0.85230
O3405       O  0.88535492  0.76495011  0.39673739    -0.71990
O3406       O  0.84377138  0.74163798  0.41253175    -0.84130
Zr3407     Zr  0.87536815  0.76598212  0.48770051     2.26420
Zr3408     Zr  0.92968936  0.77508799  0.42496468     2.06270
Zr3409     Zr  0.84199288  0.72735959  0.45635249     2.10050
Zr3410     Zr  0.93908222  0.73222434  0.46226285     1.78760
O3411       O  0.78312557  0.72574524  0.44833737    -0.92930
O3412       O  0.99759515  0.73776610  0.45875798    -0.40740
O3413       O  0.88686348  0.73746054  0.48368455    -0.77370
O3414       O  0.92879598  0.76082931  0.46855037    -0.96060
O3415       O  0.87731081  0.78048699  0.44507545    -0.89360
O3416       O  0.83068405  0.75584103  0.46109639    -0.92200
C3417       C  0.95391931  0.70540144  0.40746511     1.01550
C3418       C  0.84199384  0.70903853  0.39770691     1.14480
C3419       C  0.94087155  0.76517728  0.35535035     1.05260
O3420       O  0.98907971  0.77610754  0.42987899    -0.94360
O3421       O  0.93857396  0.79615938  0.46047006    -0.90100
O3422       O  0.90602910  0.78981461  0.49741346    -0.83250
C3423       C  0.92682093  0.79867225  0.48496097     1.11900
O3424       O  0.80956124  0.76596085  0.37162772    -0.96330
Zr3425     Zr  0.83317375  0.77020571  0.41803634     1.88940
O3426       O  0.83614642  0.78850826  0.49146594    -0.72980
O3427       O  0.92611664  0.80244668  0.40547017    -0.52240
O3428       O  0.83909196  0.79535613  0.39161692    -0.96920
O3429       O  0.77393705  0.76616268  0.41937149    -0.54140
O3430       O  0.81325576  0.79199447  0.44850936    -0.73500
C3431       C  0.81749769  0.79612740  0.47418607     0.98840
O3432       O  0.89714460  0.76646530  0.53536767    -0.62320
O3433       O  0.84480846  0.70164217  0.48155430    -0.57120
O3434       O  0.83958271  0.75370022  0.52130312    -0.93800
O3435       O  0.82232489  0.72917417  0.50402394    -0.92230
O3436       O  0.93493890  0.70739235  0.48971603    -0.92590
O3437       O  0.96477324  0.73516434  0.50805678    -0.91370
C3438       C  0.82438350  0.74010710  0.52324239     1.17690
H3439       H  0.89691573  0.71014348  0.43324223     0.33630
H3440       H  0.94549101  0.76520414  0.48088209     0.44480
H3441       H  0.81019457  0.75771430  0.47059562     0.38010
H3442       H  0.88440827  0.77034925  0.37890383     0.34490
H3443       H  0.50833402  0.72754373  0.46486776     0.26280
H3444       H  0.94827625  0.80476835  0.39815801     0.32220
H3445       H  0.81780662  0.80103326  0.39365261     0.38130
H3446       H  0.95698913  0.70238222  0.48872176     0.32580
H3447       H  0.82486196  0.69556067  0.47584429     0.31460
H3448       H  0.77594875  0.71627439  0.45950502     0.33140
H3449       H  0.76455873  0.77688804  0.41422986     0.32110
H3450       H  0.94677626  0.73867426  0.52052204     0.36110
H3451       H  0.89664867  0.75496245  0.54161143     0.28840
H3452       H  0.91122986  0.72306583  0.33772827     0.33080
H3453       H  0.79524377  0.77550271  0.36817346     0.35930
H3454       H  0.86312282  0.69556099  0.47284626     0.28540
H3455       H  0.92083312  0.76881406  0.53348967     0.41410
H3456       H  0.99735256  0.76824462  0.41576775     0.31460
H3457       H  0.00199492  0.73825755  0.43845910     0.39080
H3458       H  0.76837770  0.76494142  0.43934202     0.30930
H3459       H  0.91205654  0.80127460  0.38865089     0.30990
H3460       H  0.87864405  0.73313335  0.33443388     0.31260
Zr3461     Zr  0.89617270  0.86516020  0.57426018     2.17510
O3462       O  0.85270880  0.85990901  0.54012914    -0.51100
O3463       O  0.87496051  0.84467025  0.60572935    -0.74300
O3464       O  0.90523080  0.84191596  0.54337332    -0.81090
O3465       O  0.86399087  0.90892013  0.57890898    -0.82830
O3466       O  0.95233107  0.83298704  0.56143947    -0.78460
O3467       O  0.85127433  0.88295910  0.58725192    -0.90090
O3468       O  0.90880317  0.84491943  0.64356633    -0.76050
O3469       O  0.94247706  0.85258601  0.59537685    -0.85540
O3470       O  0.90479612  0.88007759  0.61715757    -0.85230
O3471       O  0.93951132  0.86826607  0.54064838    -0.71990
O3472       O  0.90649185  0.89323504  0.56307905    -0.84130
Zr3473     Zr  0.50415095  0.89860192  0.59161114     2.26420
Zr3474     Zr  0.98653095  0.85650469  0.56325148     2.06270
Zr3475     Zr  0.91599502  0.90847382  0.60563212     2.10050
Zr3476     Zr  0.95058148  0.86693240  0.63766978     1.78760
O3477       O  0.89004476  0.93526550  0.60525015    -0.92930
O3478       O  0.98317387  0.84331759  0.65116004    -0.40740
O3479       O  0.96222512  0.89525014  0.62629555    -0.77370
O3480       O  0.99619579  0.87075747  0.60628264    -0.96060
O3481       O  0.99469401  0.88394984  0.54961937    -0.89360
O3482       O  0.95754057  0.91147079  0.57133489    -0.92200
C3483       C  0.88405871  0.83920248  0.62952999     1.01550
C3484       C  0.84474545  0.89660508  0.57588818     1.14480
C3485       C  0.92990818  0.83235170  0.54311667     1.05260
O3486       O  0.51876107  0.83194185  0.57118445    -0.94360
O3487       O  0.54542732  0.85927724  0.56402114    -0.90100
O3488       O  0.55211009  0.88631259  0.57311711    -0.83250
C3489       C  0.56264243  0.87228962  0.56567505     1.11900
O3490       O  0.89704450  0.89501766  0.50176600    -0.96330
Zr3491     Zr  0.94761136  0.89609019  0.52916406     1.88940
O3492       O  0.51898868  0.91724664  0.55359393    -0.72980
O3493       O  0.49436704  0.85109716  0.51360608    -0.52240
O3494       O  0.95525196  0.88443264  0.48265888    -0.96920
O3495       O  0.93758073  0.92389370  0.51300169    -0.54140
O3496       O  0.00247748  0.90246828  0.51666639    -0.73500
C3497       C  0.51612237  0.91497745  0.52710099     0.98840
O3498       O  0.55006847  0.90178117  0.62412462    -0.62320
O3499       O  0.88964210  0.90760803  0.65115914    -0.57120
O3500       O  0.00684684  0.92448591  0.61492684    -0.93800
O3501       O  0.95357343  0.93135880  0.62223363    -0.92230
O3502       O  0.92081024  0.87528223  0.67933859    -0.92590
O3503       O  0.98671371  0.87206929  0.67739911    -0.91370
C3504       C  0.98494652  0.93430389  0.62379430     1.17690
H3505       H  0.88613054  0.87902245  0.62934760     0.33630
H3506       H  0.51600256  0.86673491  0.61496413     0.44480
H3507       H  0.96124606  0.92291670  0.56782419     0.38010
H3508       H  0.93497675  0.86289533  0.52301952     0.34490
H3509       H  0.97081386  0.83826664  0.66660724     0.26280
H3510       H  0.51267999  0.85834302  0.50823443     0.32220
H3511       H  0.96158857  0.89381107  0.47090793     0.38130
H3512       H  0.91889558  0.86520067  0.69051637     0.32580
H3513       H  0.89555770  0.91812227  0.66022381     0.31460
H3514       H  0.87071534  0.93425631  0.61753232     0.33140
H3515       H  0.94457636  0.92376832  0.49322210     0.32110
H3516       H  0.50580509  0.87779693  0.66935270     0.36110
H3517       H  0.53983652  0.90309939  0.64272255     0.28840
H3518       H  0.84723381  0.84813834  0.54091832     0.33080
H3519       H  0.90023947  0.90252235  0.48589126     0.35930
H3520       H  0.86592192  0.90855409  0.64703135     0.28540
H3521       H  0.56063291  0.89091155  0.62504140     0.41410
H3522       H  0.01691188  0.82994592  0.59148647     0.31460
H3523       H  0.98071750  0.83552311  0.63536784     0.39080
H3524       H  0.95387708  0.93096901  0.52250861     0.30930
H3525       H  0.00372400  0.83994874  0.51277378     0.30990
H3526       H  0.86279577  0.86150287  0.52157192     0.31260
Zr3527     Zr  0.76364210  0.86573209  0.55619932     2.17510
O3528       O  0.81101596  0.85828917  0.58470706    -0.51100
O3529       O  0.78101906  0.84371613  0.52516027    -0.74300
O3530       O  0.75579157  0.84503149  0.59105622    -0.81090
O3531       O  0.79715675  0.90898850  0.55422615    -0.82830
O3532       O  0.70968715  0.83441474  0.57351076    -0.78460
O3533       O  0.80969465  0.88305256  0.54523150    -0.90090
O3534       O  0.74813332  0.84404495  0.48674150    -0.76050
O3535       O  0.71824020  0.85310972  0.53335245    -0.85540
O3536       O  0.75695022  0.88032968  0.51329654    -0.85230
O3537       O  0.71867415  0.86947123  0.58855412    -0.71990
O3538       O  0.75409367  0.89390602  0.56860944    -0.84130
Zr3539     Zr  0.65643610  0.89874702  0.53510991     2.26420
Zr3540     Zr  0.67328574  0.85678187  0.56453839     2.06270
Zr3541     Zr  0.74641585  0.90866956  0.52577849     2.10050
Zr3542     Zr  0.71123885  0.86756537  0.49114370     1.78760
O3543       O  0.77263905  0.93540429  0.52748829    -0.92930
O3544       O  0.67668526  0.84537701  0.47384786    -0.40740
O3545       O  0.70078430  0.89582570  0.50277550    -0.77370
O3546       O  0.66471451  0.87076599  0.52130257    -0.96060
O3547       O  0.66437408  0.88438348  0.57741133    -0.89360
O3548       O  0.70166435  0.91219337  0.55727690    -0.92200
C3549       C  0.77129266  0.83787986  0.50160897     1.01550
C3550       C  0.81624207  0.89664445  0.55706713     1.14480
C3551       C  0.73140858  0.83542173  0.59250775     1.05260
O3552       O  0.64569997  0.83181715  0.54958174    -0.94360
O3553       O  0.61443776  0.85959250  0.56288425    -0.90100
O3554       O  0.60710741  0.88587154  0.54922930    -0.83250
C3555       C  0.59679899  0.87220379  0.55834554     1.11900
O3556       O  0.74885822  0.88741545  0.63401086    -0.96330
Zr3557     Zr  0.70968422  0.89735112  0.59946034     1.88940
O3558       O  0.63592813  0.91586098  0.57321095    -0.72980
O3559       O  0.65563414  0.85061022  0.61195337    -0.52240
O3560       O  0.69961845  0.90126788  0.64921811    -0.96920
O3561       O  0.72734127  0.92560691  0.60572180    -0.54140
O3562       O  0.65197735  0.89946319  0.60743710    -0.73500
C3563       C  0.63730386  0.91215976  0.59912349     0.98840
O3564       O  0.61380160  0.90244120  0.49975901    -0.62320
O3565       O  0.77528346  0.90773977  0.48135699    -0.57120
O3566       O  0.65729933  0.92493513  0.51329832    -0.93800
O3567       O  0.71116873  0.93159775  0.50858001    -0.92230
O3568       O  0.74580870  0.87410506  0.45146502    -0.92590
O3569       O  0.67834378  0.87505274  0.45065402    -0.91370
C3570       C  0.68010719  0.93461571  0.50586984     1.17690
H3571       H  0.77612947  0.87911227  0.50172055     0.33630
H3572       H  0.64532249  0.86660330  0.51202419     0.44480
H3573       H  0.69698457  0.92359623  0.56070075     0.38010
H3574       H  0.72158352  0.86481061  0.60682072     0.34490
H3575       H  0.68768560  0.84145096  0.45667156     0.26280
H3576       H  0.65460347  0.83853586  0.61259872     0.32220
H3577       H  0.69102137  0.91252661  0.65109243     0.38130
H3578       H  0.74475809  0.86427901  0.43929604     0.32580
H3579       H  0.77022239  0.91832204  0.47243863     0.31460
H3580       H  0.79295109  0.93420456  0.51644068     0.33140
H3581       H  0.74256113  0.92532802  0.62188762     0.32110
H3582       H  0.65749729  0.87910242  0.45861795     0.36110
H3583       H  0.62577008  0.90439859  0.48215241     0.28840
H3584       H  0.81390679  0.84630312  0.58316577     0.33080
H3585       H  0.77060243  0.88937490  0.62557373     0.35930
H3586       H  0.79877824  0.90849029  0.48648254     0.28540
H3587       H  0.60390907  0.89150171  0.49694416     0.41410
H3588       H  0.64441774  0.83261732  0.52899012     0.31460
H3589       H  0.67999270  0.83646448  0.48743477     0.39080
H3590       H  0.70774407  0.93142563  0.61276410     0.30930
H3591       H  0.67411936  0.85357784  0.62443524     0.30990
H3592       H  0.80517372  0.86049809  0.60444524     0.30940
Zr3593     Zr  0.72883138  0.24134194  0.24082629     2.17510
O3594       O  0.72948070  0.22964420  0.28763509    -0.51100
O3595       O  0.67795988  0.22493613  0.24307199    -0.74300
O3596       O  0.71109743  0.26002231  0.27712785    -0.81090
O3597       O  0.76433575  0.20414409  0.21221319    -0.82830
O3598       O  0.70724894  0.28561864  0.25956973    -0.78460
O3599       O  0.76565040  0.21955006  0.25104331    -0.90090
O3600       O  0.65150380  0.22621846  0.20136431    -0.76050
O3601       O  0.69222442  0.25786910  0.21465962    -0.85540
O3602       O  0.72192598  0.22707126  0.19748357    -0.85230
O3603       O  0.75742259  0.26718900  0.23721553    -0.71990
O3604       O  0.78315780  0.23900794  0.22114141    -0.84130
Zr3605     Zr  0.76757987  0.26727218  0.14625359     2.26420
Zr3606     Zr  0.72063795  0.28338465  0.20938654     2.06270
Zr3607     Zr  0.77577609  0.22510282  0.17728380     2.10050
Zr3608     Zr  0.68584936  0.24360433  0.17131978     1.78760
O3609       O  0.83283919  0.21796793  0.18585671    -0.92930
O3610       O  0.63244726  0.25687185  0.17274347    -0.40740
O3611       O  0.73922497  0.24157346  0.15011983    -0.77370
O3612       O  0.71291784  0.26959571  0.16538588    -0.96060
O3613       O  0.77436064  0.28131096  0.18947043    -0.89360
O3614       O  0.80399799  0.25064576  0.17225869    -0.92200
C3615       C  0.65402085  0.22105932  0.22664719     1.01550
C3616       C  0.76289593  0.20581681  0.23882861     1.14480
C3617       C  0.70513162  0.27528311  0.27961237     1.05260
O3618       O  0.66433791  0.28878494  0.19507083    -0.94360
O3619       O  0.74275533  0.30530384  0.18000626    -0.90100
O3620       O  0.74736592  0.29387959  0.13703478    -0.83250
C3621       C  0.74764772  0.30609536  0.15351462     1.11900
O3622       O  0.83045722  0.25885567  0.26255290    -0.96330
Zr3623     Zr  0.81057775  0.26485319  0.21560454     1.88940
O3624       O  0.82086395  0.28188572  0.14261605    -0.72980
O3625       O  0.71345967  0.31151225  0.22548988    -0.52240
O3626       O  0.81842912  0.29066121  0.24046859    -0.96920
O3627       O  0.86399039  0.25148993  0.21591561    -0.54140
O3628       O  0.84578260  0.28145319  0.18510038    -0.73500
C3629       C  0.84455619  0.28589054  0.15935692     0.98840
O3630       O  0.75270144  0.27550074  0.09889536    -0.62320
O3631       O  0.77105411  0.19841380  0.15471635    -0.57120
O3632       O  0.78710966  0.24900752  0.11039557    -0.93800
O3633       O  0.78752001  0.22307785  0.12699301    -0.92230
O3634       O  0.67777994  0.21858265  0.14428783    -0.92590
O3635       O  0.66394229  0.24921154  0.12495441    -0.91370
C3636       C  0.79106860  0.23362798  0.10742987     1.17690
H3637       H  0.71241107  0.21636079  0.19967975     0.33630
H3638       H  0.69950571  0.27621759  0.15323825     0.44480
H3639       H  0.82453269  0.24927126  0.16257804     0.38010
H3640       H  0.76156301  0.27203829  0.25532883     0.34490
H3641       H  0.61678035  0.24834951  0.16644290     0.26280
H3642       H  0.69150499  0.31198737  0.23417737     0.32220
H3643       H  0.84207227  0.29312560  0.23863046     0.38130
H3644       H  0.65392918  0.21643634  0.14519921     0.32580
H3645       H  0.78695272  0.19135258  0.16460916     0.31460
H3646       H  0.84262207  0.21715668  0.16700880     0.33140
H3647       H  0.87981292  0.26031515  0.22039588     0.32110
H3648       H  0.68343688  0.25186138  0.11361572     0.36110
H3649       H  0.77346763  0.27621879  0.08834809     0.28840
H3650       H  0.70691147  0.23081238  0.29485920     0.33080
H3651       H  0.84932244  0.26624851  0.26582309     0.35930
H3652       H  0.74924740  0.19424907  0.16020083     0.28540
H3653       H  0.74064886  0.26615640  0.09051268     0.41410
H3654       H  0.65148037  0.28783465  0.21247265     0.31460
H3655       H  0.62774101  0.25833836  0.19287897     0.39080
H3656       H  0.86849320  0.24867336  0.19616301     0.30930
H3657       H  0.72918878  0.31302216  0.24112162     0.30990
H3658       H  0.74309932  0.23702505  0.29937851     0.31260
Zr3659     Zr  0.51644915  0.23390510  0.74478526     2.17510
O3660       O  0.52481000  0.22266077  0.79134076    -0.51100
O3661       O  0.97459222  0.21183541  0.74503011    -0.74300
O3662       O  0.98863127  0.25025000  0.78051579    -0.81090
O3663       O  0.57403133  0.19981904  0.71228591    -0.82830
O3664       O  0.97185165  0.27406755  0.76081281    -0.78460
O3665       O  0.56771197  0.21979385  0.74211404    -0.90090
O3666       O  0.94848722  0.21218692  0.70300403    -0.76050
O3667       O  0.97664596  0.24802871  0.71785194    -0.85540
O3668       O  0.51573550  0.21966994  0.70077216    -0.85230
O3669       O  0.53628464  0.26172420  0.74194768    -0.71990
O3670       O  0.57036314  0.23595083  0.72428222    -0.84130
Zr3671     Zr  0.54937609  0.26236885  0.65033296     2.26420
Zr3672     Zr  0.99674399  0.27553564  0.71336628     2.06270
Zr3673     Zr  0.56970749  0.22169062  0.67974700     2.10050
Zr3674     Zr  0.97509965  0.23346113  0.67464980     1.78760
O3675       O  0.62878621  0.21832080  0.68425712    -0.92930
O3676       O  0.91851428  0.24255808  0.67911163    -0.40740
O3677       O  0.52838603  0.23518005  0.65329263    -0.77370
O3678       O  0.99452597  0.26118223  0.66933711    -0.96060
O3679       O  0.55046748  0.27672056  0.69373215    -0.89360
O3680       O  0.58999163  0.24893310  0.67706428    -0.92200
C3681       C  0.95287263  0.20629172  0.72763234     1.01550
C3682       C  0.56726556  0.20464575  0.73665747     1.14480
C3683       C  0.97315219  0.26390750  0.78140525     1.05260
O3684       O  0.94028438  0.28276393  0.70244243    -0.94360
O3685       O  0.00309586  0.29831767  0.67957895    -0.90100
O3686       O  0.53465245  0.28989827  0.64297583    -0.83250
C3687       C  0.01802069  0.30055191  0.65607013     1.11900
O3688       O  0.60846925  0.25977528  0.76921903    -0.96330
Zr3689     Zr  0.59016777  0.26321635  0.72102802     1.88940
O3690       O  0.60078365  0.27791667  0.64644263    -0.72980
O3691       O  0.50682125  0.30099646  0.73869748    -0.52240
O3692       O  0.59100752  0.29033316  0.74239416    -0.96920
O3693       O  0.64587821  0.25286542  0.72618013    -0.54140
O3694       O  0.62327586  0.27996251  0.68990927    -0.73500
C3695       C  0.62272565  0.28323349  0.66371647     0.98840
O3696       O  0.52533986  0.26752890  0.60434530    -0.62320
O3697       O  0.56219471  0.19538302  0.65635447    -0.57120
O3698       O  0.57376557  0.24617282  0.61333952    -0.93800
O3699       O  0.58173199  0.22055481  0.62991215    -0.92230
O3700       O  0.97336460  0.20925142  0.64481195    -0.92590
O3701       O  0.94989922  0.23887772  0.62944821    -0.91370
C3702       C  0.58160650  0.23111986  0.61027579     1.17690
H3703       H  0.51059966  0.20821740  0.70256225     0.33630
H3704       H  0.97973100  0.26689578  0.65699060     0.44480
H3705       H  0.61111820  0.24910797  0.66806897     0.38010
H3706       H  0.53743308  0.26670760  0.76028797     0.34490
H3707       H  0.90521551  0.23317534  0.67243806     0.26280
H3708       H  0.98486568  0.30490430  0.74437610     0.32220
H3709       H  0.61423089  0.29380991  0.74169697     0.38130
H3710       H  0.95047992  0.20530143  0.64599570     0.32580
H3711       H  0.58188577  0.18889699  0.66115421     0.31460
H3712       H  0.63515656  0.21194956  0.66748149     0.33140
H3713       H  0.65964824  0.26272715  0.72881923     0.32110
H3714       H  0.96843425  0.24191325  0.61727086     0.36110
H3715       H  0.51956440  0.25664012  0.59662780     0.28840
H3716       H  0.50260686  0.22107033  0.79911150     0.33080
H3717       H  0.62414073  0.26878122  0.77292864     0.35930
H3718       H  0.54394118  0.19000791  0.66627628     0.28540
H3719       H  0.00377018  0.27262643  0.60801551     0.41410
H3720       H  0.92692391  0.27492885  0.71317773     0.31460
H3721       H  0.91446381  0.24303665  0.69947856     0.39080
H3722       H  0.65184394  0.24869829  0.70742022     0.30930
H3723       H  0.51766720  0.29772496  0.75633993     0.30990
H3724       H  0.53453900  0.23165827  0.80257465     0.31260
Zr3725     Zr  0.65854058  0.23977240  0.39616720     2.17510
O3726       O  0.65980903  0.22826076  0.34895761    -0.51100
O3727       O  0.71010735  0.22374706  0.39388692    -0.74300
O3728       O  0.67447852  0.25923864  0.36082291    -0.81090
O3729       O  0.62690371  0.20168434  0.42363372    -0.82830
O3730       O  0.67813617  0.28463093  0.38005926    -0.78460
O3731       O  0.62170324  0.21782504  0.38663469    -0.90090
O3732       O  0.73577723  0.22538261  0.43595313    -0.76050
O3733       O  0.69306840  0.25717758  0.42321055    -0.85540
O3734       O  0.66606750  0.22545727  0.43907802    -0.85230
O3735       O  0.62751047  0.26489933  0.40077104    -0.71990
O3736       O  0.60425528  0.23598115  0.41535449    -0.84130
Zr3737     Zr  0.61596709  0.26400102  0.49115499     2.26420
Zr3738     Zr  0.66216326  0.28197023  0.42948460     2.06270
Zr3739     Zr  0.61213654  0.22207294  0.45885313     2.10050
Zr3740     Zr  0.70044920  0.24278557  0.46586232     1.78760
O3741       O  0.55480472  0.21498787  0.45115301    -0.92930
O3742       O  0.75240054  0.25735550  0.46331153    -0.40740
O3743       O  0.64710255  0.23922528  0.48645162    -0.77370
O3744       O  0.67048961  0.26803222  0.47281396    -0.96060
O3745       O  0.60872453  0.27813717  0.44858201    -0.89360
O3746       O  0.58128810  0.24675147  0.46426752    -0.92200
C3747       C  0.73386884  0.22004444  0.41056685     1.01550
C3748       C  0.62786184  0.20404054  0.39727304     1.14480
C3749       C  0.68029249  0.27456451  0.35935715     1.05260
O3750       O  0.71826992  0.28996368  0.44045658    -0.94360
O3751       O  0.64702161  0.30355929  0.46344757    -0.90100
O3752       O  0.62329968  0.29202577  0.50150038    -0.83250
C3753       C  0.63382145  0.30417910  0.48789005     1.11900
O3754       O  0.55512302  0.25342204  0.37477915    -0.96330
Zr3755     Zr  0.57427722  0.26107015  0.42142915     1.88940
O3756       O  0.56220140  0.27786807  0.49512895    -0.72980
O3757       O  0.65368916  0.30945515  0.41150978    -0.52240
O3758       O  0.56405754  0.28600267  0.39528591    -0.96920
O3759       O  0.52114284  0.24738342  0.42201432    -0.54140
O3760       O  0.53925042  0.27802892  0.45179814    -0.73500
C3761       C  0.53952319  0.28221238  0.47778736     0.98840
O3762       O  0.63736826  0.26877299  0.53829565    -0.62320
O3763       O  0.61207669  0.19481893  0.47904394    -0.57120
O3764       O  0.59330205  0.24578718  0.52500365    -0.93800
O3765       O  0.60743475  0.22036763  0.51006819    -0.92230
O3766       O  0.71107728  0.21854033  0.49366239    -0.92590
O3767       O  0.72244239  0.24946289  0.51193984    -0.91370
C3768       C  0.59808208  0.23057422  0.52902336     1.17690
H3769       H  0.67663123  0.21499189  0.43677883     0.33630
H3770       H  0.68279131  0.27499972  0.48543780     0.44480
H3771       H  0.56079163  0.24494062  0.47375251     0.38010
H3772       H  0.62334001  0.26980511  0.38283655     0.34490
H3773       H  0.76903382  0.24931404  0.46941268     0.26280
H3774       H  0.67518521  0.31295366  0.40413053     0.32220
H3775       H  0.54025475  0.28802606  0.39722827     0.38130
H3776       H  0.73503263  0.21680436  0.49234124     0.32580
H3777       H  0.59737749  0.18821254  0.46691390     0.31460
H3778       H  0.54614086  0.21293149  0.47009160     0.33140
H3779       H  0.50525572  0.25583951  0.41612054     0.32110
H3780       H  0.70298299  0.24997017  0.52418200     0.36110
H3781       H  0.64606074  0.25809169  0.54445499     0.28840
H3782       H  0.68221277  0.23024919  0.34191834     0.33080
H3783       H  0.53579520  0.26038382  0.37099340     0.35930
H3784       H  0.63430324  0.19043915  0.47552995     0.28540
H3785       H  0.65728770  0.27551519  0.53585573     0.41410
H3786       H  0.73015002  0.28869647  0.42258526     0.31460
H3787       H  0.75648284  0.25869017  0.44308402     0.39080
H3788       H  0.51614977  0.24560867  0.44197113     0.30930
H3789       H  0.63938473  0.30813026  0.39487072     0.30990
H3790       H  0.64529993  0.23522791  0.33745152     0.31260
Zr3791     Zr  0.87917862  0.23570345  0.89294596     2.17510
O3792       O  0.87128214  0.22413832  0.84622737    -0.51100
O3793       O  0.92012883  0.21343973  0.89314602    -0.74300
O3794       O  0.90791398  0.25103004  0.85708503    -0.81090
O3795       O  0.82443379  0.20198878  0.92491003    -0.82830
O3796       O  0.92454675  0.27507017  0.87654256    -0.78460
O3797       O  0.82890026  0.22093619  0.89335902    -0.90090
O3798       O  0.94570681  0.21376351  0.93544159    -0.76050
O3799       O  0.91946875  0.24950087  0.92021648    -0.85540
O3800       O  0.87927886  0.22195093  0.93708976    -0.85230
O3801       O  0.86026409  0.26367021  0.89550543    -0.71990
O3802       O  0.82494085  0.23815264  0.91280778    -0.84130
Zr3803     Zr  0.84677527  0.26546381  0.98737591     2.26420
Zr3804     Zr  0.90033074  0.27715453  0.92436142     2.06270
Zr3805     Zr  0.82525400  0.22446756  0.95746871     2.10050
Zr3806     Zr  0.92000238  0.23549007  0.96367599     1.78760
O3807       O  0.76650784  0.22096786  0.95059712    -0.92930
O3808       O  0.97708538  0.24388963  0.95984507    -0.40740
O3809       O  0.86661611  0.23794669  0.98476014    -0.77370
O3810       O  0.90194099  0.26338897  0.96871319    -0.96060
O3811       O  0.84615895  0.27927561  0.94367040    -0.89360
O3812       O  0.80595110  0.25199827  0.96031410    -0.92200
C3813       C  0.94119958  0.20777599  0.91076451     1.01550
C3814       C  0.83093939  0.20608754  0.90013902     1.14480
C3815       C  0.92345460  0.26462947  0.85608710     1.05260
O3816       O  0.95619073  0.28244732  0.94010732    -0.94360
O3817       O  0.88600227  0.30065010  0.95477005    -0.90100
O3818       O  0.87812385  0.28939515  0.99711800    -0.83250
C3819       C  0.88064895  0.30166671  0.98125365     1.11900
O3820       O  0.78945671  0.26322462  0.86738953    -0.96330
Zr3821     Zr  0.80628254  0.26570901  0.91620442     1.88940
O3822       O  0.79516852  0.28123814  0.98984203    -0.72980
O3823       O  0.90233988  0.30345368  0.90083941    -0.52240
O3824       O  0.80633344  0.29321911  0.89709196    -0.96920
O3825       O  0.75113387  0.25494438  0.90909139    -0.54140
O3826       O  0.77104727  0.28181505  0.94699823    -0.73500
C3827       C  0.77206469  0.28564755  0.97303747     0.98840
O3828       O  0.85443934  0.27699605  0.03419239    -0.62320
O3829       O  0.83066198  0.19852355  0.98175504    -0.57120
O3830       O  0.82882452  0.24769866  0.02485424    -0.93800
O3831       O  0.81078801  0.22362764  0.00678959    -0.92230
O3832       O  0.92025705  0.21139853  0.99320846    -0.92590
O3833       O  0.94494805  0.24086644  0.00914006    -0.91370
C3834       C  0.81598635  0.23350561  0.02724082     1.17690
H3835       H  0.88415325  0.21044937  0.93552628     0.33630
H3836       H  0.91742990  0.26884723  0.98093013     0.44480
H3837       H  0.78474356  0.25227234  0.96916690     0.38010
H3838       H  0.85949017  0.26851767  0.87717728     0.34490
H3839       H  0.98984427  0.23429930  0.96613944     0.26280
H3840       H  0.92553000  0.30499859  0.89546800     0.32220
H3841       H  0.78307888  0.29666405  0.89723962     0.38130
H3842       H  0.94298861  0.20721315  0.99224162     0.32580
H3843       H  0.81177320  0.19182470  0.97544857     0.31460
H3844       H  0.76011260  0.21274123  0.96461184     0.33140
H3845       H  0.73714748  0.26469898  0.90644072     0.32110
H3846       H  0.92669621  0.24495015  0.02081959     0.36110
H3847       H  0.83259839  0.27690034  0.04312052     0.28840
H3848       H  0.89352473  0.22214381  0.83876994     0.33080
H3849       H  0.77371936  0.27222669  0.86417156     0.35930
H3850       H  0.85010187  0.19316133  0.97345823     0.28540
H3851       H  0.86774429  0.26897844  0.04470562     0.41410
H3852       H  0.97013032  0.27726807  0.92567328     0.31460
H3853       H  0.98127507  0.24445098  0.93951830     0.39080
H3854       H  0.74463446  0.25066792  0.92753945     0.30930
H3855       H  0.89035089  0.30182121  0.88299401     0.30990
H3856       H  0.86220284  0.23310409  0.83477644     0.31260
Zr3857     Zr  0.72164896  0.01351030  0.89559825     2.17510
O3858       O  0.72365102  0.02537985  0.84902737    -0.51100
O3859       O  0.67217628  0.03070346  0.89217062    -0.74300
O3860       O  0.70355568  0.99462986  0.85919322    -0.81090
O3861       O  0.76356058  0.04917641  0.92490928    -0.82830
O3862       O  0.69042353  0.97000592  0.87768942    -0.78460
O3863       O  0.76193358  0.03384391  0.88597362    -0.90090
O3864       O  0.64494988  0.03045553  0.93337053    -0.76050
O3865       O  0.68149330  0.99933943  0.92153234    -0.85540
O3866       O  0.71735531  0.02828289  0.93871716    -0.85230
O3867       O  0.74481297  0.98656145  0.90023931    -0.71990
O3868       O  0.77600412  0.01334135  0.91616502    -0.84130
Zr3869     Zr  0.75368841  0.98626932  0.99067462     2.26420
Zr3870     Zr  0.70419800  0.97253209  0.92707013     2.06270
Zr3871     Zr  0.77124886  0.02771367  0.95981393     2.10050
Zr3872     Zr  0.67807173  0.01384237  0.96484495     1.78760
O3873       O  0.82940562  0.03216940  0.95166491    -0.92930
O3874       O  0.62383053  0.00144770  0.96622599    -0.40740
O3875       O  0.73136916  0.01331599  0.98649033    -0.77370
O3876       O  0.69937743  0.98687288  0.97078762    -0.96060
O3877       O  0.75767154  0.97180222  0.94788010    -0.89360
O3878       O  0.79373810  0.00088758  0.96530474    -0.92200
C3879       C  0.64819025  0.03501764  0.90796050     1.01550
C3880       C  0.76155294  0.04762097  0.89826844     1.14480
C3881       C  0.69351046  0.97983120  0.85716017     1.05260
O3882       O  0.64576400  0.96646551  0.92601545    -0.94360
O3883       O  0.69525728  0.95269378  0.96357882    -0.90100
O3884       O  0.72791323  0.96093009  0.99978184    -0.83250
C3885       C  0.70738545  0.95132184  0.98817749     1.11900
O3886       O  0.82203746  0.99419849  0.87801110    -0.96330
Zr3887     Zr  0.79776686  0.98624174  0.92235981     1.88940
O3888       O  0.79875236  0.96618715  0.99388208    -0.72980
O3889       O  0.72027059  0.94538868  0.91112359    -0.52240
O3890       O  0.80228562  0.96229270  0.89206315    -0.96920
O3891       O  0.85478529  0.99461001  0.92877306    -0.54140
O3892       O  0.82276939  0.96485022  0.95122023    -0.73500
C3893       C  0.81942480  0.95993818  0.97651219     0.98840
O3894       O  0.73407805  0.98446486  0.03883286    -0.62320
O3895       O  0.77202668  0.05438720  0.98276256    -0.57120
O3896       O  0.78421054  0.00155541  0.02493998    -0.93800
O3897       O  0.78335257  0.02797689  0.01049797    -0.92230
O3898       O  0.67366208  0.04028081  0.98820854    -0.92590
O3899       O  0.65667322  0.01129751  0.01201106    -0.91370
C3900       C  0.78838808  0.01685232  0.02899104     1.17690
H3901       H  0.70961045  0.03931058  0.93603934     0.33630
H3902       H  0.68409377  0.98138925  0.98285849     0.44480
H3903       H  0.81432455  0.00118246  0.97532187     0.38010
H3904       H  0.74853817  0.98130141  0.88244394     0.34490
H3905       H  0.60874185  0.01064503  0.97014693     0.26280
H3906       H  0.70016443  0.94063416  0.90271810     0.32220
H3907       H  0.82486332  0.95821827  0.89506487     0.38130
H3908       H  0.65001769  0.04296824  0.98750241     0.32580
H3909       H  0.78912017  0.06069276  0.97294328     0.31460
H3910       H  0.83937094  0.03230879  0.97057125     0.33140
H3911       H  0.86777730  0.98579879  0.91988180     0.32110
H3912       H  0.67383249  0.00523842  0.02230527     0.36110
H3913       H  0.72927981  0.99584360  0.04467818     0.28840
H3914       H  0.70099664  0.02461274  0.84167148     0.33080
H3915       H  0.83976347  0.98623883  0.87425779     0.35930
H3916       H  0.75108201  0.05960562  0.97732570     0.28540
H3917       H  0.71208614  0.97938266  0.03777365     0.41410
H3918       H  0.63641067  0.97407418  0.91211303     0.31460
H3919       H  0.61900506  0.99833060  0.94660828     0.39080
H3920       H  0.85947367  0.99342539  0.94895907     0.30930
H3921       H  0.73499731  0.94732545  0.89510757     0.30990
H3922       H  0.73660096  0.01770844  0.83740522     0.31260
Zr3923     Zr  0.88094478  0.01976964  0.24438192     2.17510
O3924       O  0.87136041  0.03146218  0.29068034    -0.51100
O3925       O  0.91921109  0.04320763  0.24519769    -0.74300
O3926       O  0.91022340  0.00494708  0.28106056    -0.81090
O3927       O  0.82308578  0.05058391  0.21065053    -0.82830
O3928       O  0.93327434  0.98218323  0.26200486    -0.78460
O3929       O  0.82890451  0.03311805  0.24486562    -0.90090
O3930       O  0.94595711  0.04387168  0.20368640    -0.76050
O3931       O  0.92483054  0.00833152  0.21846684    -0.85540
O3932       O  0.87951441  0.03330639  0.20007520    -0.85230
O3933       O  0.86790942  0.99103869  0.24132726    -0.71990
O3934       O  0.82783238  0.01430496  0.22332674    -0.84130
Zr3935     Zr  0.85816919  0.98848419  0.14942336     2.26420
Zr3936     Zr  0.91175151  0.97988032  0.21416871     2.06270
Zr3937     Zr  0.82655683  0.02784121  0.17870815     2.10050
Zr3938     Zr  0.92350963  0.02190472  0.17464595     1.78760
O3939       O  0.76752018  0.02713275  0.18571064    -0.92930
O3940       O  0.98161973  0.01546496  0.17874218    -0.40740
O3941       O  0.87128017  0.01687916  0.15273964    -0.77370
O3942       O  0.91157227  0.99335825  0.16970409    -0.96060
O3943       O  0.85953168  0.97471007  0.19292857    -0.89360
O3944       O  0.81360092  0.99943826  0.17489514    -0.92200
C3945       C  0.94016855  0.04947900  0.22827108     1.01550
C3946       C  0.82822812  0.04768865  0.23625540     1.14480
C3947       C  0.92834562  0.99214676  0.28246820     1.05260
O3948       O  0.97068686  0.97619111  0.20963770    -0.94360
O3949       O  0.92083608  0.95824285  0.17987855    -0.90100
O3950       O  0.88751168  0.96389290  0.14280761    -0.83250
C3951       C  0.90860459  0.95529245  0.15559978     1.11900
O3952       O  0.79066283  0.99112748  0.26420882    -0.96330
Zr3953     Zr  0.81568530  0.98574265  0.21887716     1.88940
O3954       O  0.81711569  0.96662937  0.14579664    -0.72980
O3955       O  0.90266950  0.95377960  0.23701533    -0.52240
O3956       O  0.82080442  0.96118152  0.24702891    -0.96920
O3957       O  0.75651011  0.98985628  0.21615656    -0.54140
O3958       O  0.79579211  0.96324583  0.18917000    -0.73500
C3959       C  0.79910341  0.95898305  0.16342233     0.98840
O3960       O  0.88128481  0.98592488  0.10250263    -0.62320
O3961       O  0.82040883  0.05361588  0.15401732    -0.57120
O3962       O  0.82725570  0.00190416  0.11271263    -0.93800
O3963       O  0.81530868  0.02744634  0.12851222    -0.92230
O3964       O  0.92047678  0.04644391  0.14632883    -0.92590
O3965       O  0.94891572  0.01795420  0.12918220    -0.91370
C3966       C  0.81665336  0.01649074  0.10922462     1.17690
H3967       H  0.88248646  0.04497183  0.20176662     0.33630
H3968       H  0.92820143  0.98858989  0.15789372     0.44480
H3969       H  0.79317930  0.99765647  0.16505284     0.38010
H3970       H  0.86733180  0.98617382  0.25963426     0.34490
H3971       H  0.99301686  0.02538550  0.17214766     0.26280
H3972       H  0.92476363  0.95012514  0.24288603     0.32220
H3973       H  0.79959235  0.95543889  0.24469951     0.38130
H3974       H  0.94285084  0.05111950  0.14707764     0.32580
H3975       H  0.80052896  0.05881463  0.16184540     0.31460
H3976       H  0.75818787  0.03123725  0.16796867     0.33140
H3977       H  0.74694257  0.97933649  0.22214035     0.32110
H3978       H  0.93076485  0.01433227  0.11680967     0.36110
H3979       H  0.88349480  0.99723330  0.09555533     0.28840
H3980       H  0.89332687  0.03380076  0.29863613     0.33080
H3981       H  0.77708187  0.98143009  0.26837871     0.35930
H3982       H  0.83886901  0.06053866  0.16054807     0.28540
H3983       H  0.90429954  0.98241648  0.10515299     0.41410
H3984       H  0.98043018  0.98569328  0.21954389     0.31460
H3985       H  0.98608852  0.01527804  0.19908724     0.39080
H3986       H  0.75120699  0.99042445  0.19599476     0.30930
H3987       H  0.89134723  0.95653174  0.25467982     0.30990
H3988       H  0.86258847  0.02240422  0.30202562     0.31260
Zr3989     Zr  0.65910486  0.01463113  0.73977797     2.17510
O3990       O  0.66088978  0.02590302  0.78713757    -0.51100
O3991       O  0.71081745  0.03049366  0.74264195    -0.74300
O3992       O  0.67405668  0.99502303  0.77495673    -0.81090
O3993       O  0.62774008  0.05265587  0.71284607    -0.82830
O3994       O  0.67469346  0.96944692  0.75630757    -0.78460
O3995       O  0.62401888  0.03700882  0.75073068    -0.90090
O3996       O  0.73648070  0.02926604  0.70075817    -0.76050
O3997       O  0.69433628  0.99749885  0.71320790    -0.85540
O3998       O  0.66691062  0.02905126  0.69724236    -0.85230
O3999       O  0.62820443  0.98945877  0.73448805    -0.71990
O4000       O  0.60462098  0.01813275  0.72052877    -0.84130
Zr4001     Zr  0.61779259  0.99039026  0.64404683     2.26420
Zr4002     Zr  0.66371525  0.97269797  0.70624982     2.06270
Zr4003     Zr  0.61289629  0.03221159  0.67752537     2.10050
Zr4004     Zr  0.70155538  0.01187329  0.67055976     1.78760
O4005       O  0.55515440  0.03842053  0.68462636    -0.92930
O4006       O  0.75407674  0.99783434  0.67358582    -0.40740
O4007       O  0.64815030  0.01533900  0.64988378    -0.77370
O4008       O  0.67226063  0.98648718  0.66293784    -0.96060
O4009       O  0.61035790  0.97615393  0.68640901    -0.89360
O4010       O  0.58260910  0.00741208  0.67064134    -0.92200
C4011       C  0.73446266  0.03439228  0.72619481     1.01550
C4012       C  0.62873859  0.05072747  0.73934105     1.14480
C4013       C  0.67743009  0.97956510  0.77679285     1.05260
O4014       O  0.72053662  0.96702348  0.69433197    -0.94360
O4015       O  0.64379582  0.95088411  0.67497323    -0.90100
O4016       O  0.62556261  0.96220536  0.63449528    -0.83250
C4017       C  0.63268286  0.95007285  0.64978562     1.11900
O4018       O  0.55463634  0.00012543  0.75929482    -0.96330
Zr4019     Zr  0.57517765  0.99289418  0.71306342     1.88940
O4020       O  0.56442597  0.97628878  0.63883460    -0.72980
O4021       O  0.66728523  0.94422871  0.72079230    -0.52240
O4022       O  0.56570389  0.96784194  0.73902245    -0.96920
O4023       O  0.52160195  0.00607956  0.71107613    -0.54140
O4024       O  0.54141857  0.97551888  0.68191894    -0.73500
C4025       C  0.54195651  0.97152641  0.65583989     0.98840
O4026       O  0.63894126  0.98561496  0.59702280    -0.62320
O4027       O  0.60979379  0.05959459  0.65800627    -0.57120
O4028       O  0.59597767  0.00929279  0.61065613    -0.93800
O4029       O  0.61048190  0.03448875  0.62667640    -0.92230
O4030       O  0.71175971  0.03618989  0.64291282    -0.92590
O4031       O  0.72351612  0.00527776  0.62463109    -0.91370
C4032       C  0.60128751  0.02453439  0.60731265     1.17690
H4033       H  0.67731572  0.03955337  0.69973450     0.33630
H4034       H  0.68469099  0.97955997  0.65045852     0.44480
H4035       H  0.56222883  0.00920480  0.66079876     0.38010
H4036       H  0.62321643  0.98461386  0.75226422     0.34490
H4037       H  0.77031308  0.00590765  0.66697932     0.26280
H4038       H  0.68886583  0.94303793  0.73011178     0.32220
H4039       H  0.54211817  0.96542200  0.73633146     0.38130
H4040       H  0.73570286  0.03800126  0.64436414     0.32580
H4041       H  0.59529261  0.06584545  0.67070491     0.31460
H4042       H  0.54651841  0.04060268  0.66564722     0.33140
H4043       H  0.50593426  0.99754232  0.71694767     0.32110
H4044       H  0.70405757  0.00482492  0.61221270     0.36110
H4045       H  0.64783688  0.99626769  0.59098556     0.28840
H4046       H  0.68337183  0.02382122  0.79408297     0.33080
H4047       H  0.53544109  0.99298552  0.76245768     0.35930
H4048       H  0.63186250  0.06435476  0.66096670     0.28540
H4049       H  0.65871374  0.97876768  0.59956825     0.41410
H4050       H  0.73219540  0.96690096  0.71252364     0.31460
H4051       H  0.75859448  0.99690024  0.69385503     0.39080
H4052       H  0.51680022  0.00758569  0.69097589     0.30930
H4053       H  0.65090165  0.94293763  0.73580966     0.30990
H4054       H  0.64644338  0.01893607  0.79859110     0.31260
Zr4055     Zr  0.52039777  0.02210828  0.39321738     2.17510
O4056       O  0.52696791  0.03343948  0.34655990    -0.51100
O4057       O  0.97801103  0.04388156  0.39300618    -0.74300
O4058       O  0.99259850  0.00580558  0.35777723    -0.81090
O4059       O  0.57495463  0.05629676  0.42537080    -0.82830
O4060       O  0.97495948  0.98221576  0.37757262    -0.78460
O4061       O  0.57079589  0.03690747  0.39402932    -0.90090
O4062       O  0.95213125  0.04329458  0.43489517    -0.76050
O4063       O  0.98078232  0.00792727  0.41990960    -0.85540
O4064       O  0.51982353  0.03617930  0.43726593    -0.85230
O4065       O  0.54028919  0.99429716  0.39580635    -0.71990
O4066       O  0.57495118  0.02003149  0.41290601    -0.84130
Zr4067     Zr  0.55408693  0.99321007  0.48711609     2.26420
Zr4068     Zr  0.00094764  0.98047635  0.42422083     2.06270
Zr4069     Zr  0.57428894  0.03405132  0.45747558     2.10050
Zr4070     Zr  0.97958231  0.02222867  0.46329498     1.78760
O4071       O  0.63319144  0.03696427  0.45129988    -0.92930
O4072       O  0.92317410  0.01272603  0.45895617    -0.40740
O4073       O  0.53336217  0.02046649  0.48407446    -0.77370
O4074       O  0.99894570  0.99448659  0.46846625    -0.96060
O4075       O  0.55488841  0.97910003  0.44362164    -0.89360
O4076       O  0.59448630  0.00678581  0.46056821    -0.92200
C4077       C  0.95622484  0.04923587  0.41030231     1.01550
C4078       C  0.56908961  0.05187365  0.40053326     1.14480
C4079       C  0.97658268  0.99235012  0.35711718     1.05260
O4080       O  0.94493090  0.97331217  0.43641429    -0.94360
O4081       O  0.00893362  0.95717711  0.45604351    -0.90100
O4082       O  0.53958987  0.96546482  0.49352758    -0.83250
C4083       C  0.02379882  0.95477738  0.47954297     1.11900
O4084       O  0.61272864  0.99608682  0.36856390    -0.96330
Zr4085     Zr  0.59444664  0.99262050  0.41659399     1.88940
O4086       O  0.60516997  0.97748493  0.49122470    -0.72980
O4087       O  0.50903263  0.95513041  0.39809281    -0.52240
O4088       O  0.59446979  0.96567911  0.39456129    -0.96920
O4089       O  0.65049169  0.00261896  0.41239991    -0.54140
O4090       O  0.62713189  0.97538312  0.44776806    -0.73500
C4091       C  0.62673391  0.97202379  0.47395640     0.98840
O4092       O  0.53102820  0.98783711  0.53317117    -0.62320
O4093       O  0.57182709  0.06030194  0.48178535    -0.57120
O4094       O  0.57901637  0.00953762  0.52367009    -0.93800
O4095       O  0.58605254  0.03524105  0.50714519    -0.92230
O4096       O  0.97789748  0.04643810  0.49311335    -0.92590
O4097       O  0.95531188  0.01691653  0.50869371    -0.91370
C4098       C  0.58642924  0.02464529  0.52664705     1.17690
H4099       H  0.51446228  0.04761635  0.43564366     0.33630
H4100       H  0.98431838  0.98868801  0.48072389     0.44480
H4101       H  0.61566055  0.00658420  0.46966455     0.38010
H4102       H  0.54117706  0.98935009  0.37743624     0.34490
H4103       H  0.90972532  0.02200614  0.46568712     0.26280
H4104       H  0.98674867  0.95147356  0.39265227     0.32220
H4105       H  0.61750509  0.96193816  0.39570870     0.38130
H4106       H  0.95501666  0.05038407  0.49174198     0.32580
H4107       H  0.59098292  0.06657783  0.47514267     0.31460
H4108       H  0.64184289  0.03900841  0.47037145     0.33140
H4109       H  0.66388274  0.99270708  0.40913576     0.32110
H4110       H  0.97389946  0.01329523  0.52048218     0.36110
H4111       H  0.52506738  0.99868112  0.54090741     0.28840
H4112       H  0.50451268  0.03483752  0.33902036     0.33080
H4113       H  0.62855240  0.98715027  0.36502870     0.35930
H4114       H  0.55248556  0.06596737  0.47389510     0.28540
H4115       H  0.00957167  0.98255597  0.52954817     0.41410
H4116       H  0.93110458  0.98047523  0.42467168     0.31460
H4117       H  0.91881228  0.01223148  0.43860025     0.39080
H4118       H  0.65672821  0.00628090  0.43145050     0.30930
H4119       H  0.51950005  0.95841039  0.38037891     0.30990
H4120       H  0.53676397  0.02456936  0.33516796     0.31260
Zr4121     Zr  0.51372858  0.11522973  0.30909592     2.17510
O4122       O  0.97751652  0.10838246  0.34747903    -0.51100
O4123       O  0.98832564  0.09492638  0.27853785    -0.74300
O4124       O  0.96652436  0.13225281  0.30093359    -0.81090
O4125       O  0.57055456  0.08184773  0.32625519    -0.82830
O4126       O  0.97846427  0.15872393  0.30745778    -0.78460
O4127       O  0.52308157  0.09338510  0.34116192    -0.90090
O4128       O  0.51415575  0.09672147  0.23672359    -0.76050
O4129       O  0.51648119  0.13162302  0.26816352    -0.85540
O4130       O  0.55439590  0.10213342  0.28151207    -0.85230
O4131       O  0.52747311  0.14230877  0.32514680    -0.71990
O4132       O  0.56260057  0.11547408  0.33651471    -0.84130
Zr4133     Zr  0.62118955  0.14622993  0.28471427     2.26420
Zr4134     Zr  0.53210260  0.15882766  0.28321387     2.06270
Zr4135     Zr  0.60379254  0.10336049  0.30779124     2.10050
Zr4136     Zr  0.55700369  0.11819763  0.24082730     1.78760
O4137       O  0.62806755  0.08913388  0.34735130    -0.92930
O4138       O  0.51999030  0.12789756  0.20449190    -0.40740
O4139       O  0.60808708  0.11946990  0.26661232    -0.77370
O4140       O  0.57304317  0.14551808  0.25527945    -0.96060
O4141       O  0.57978199  0.15892125  0.31225208    -0.89360
O4142       O  0.61609029  0.12979458  0.32534492    -0.92200
C4143       C  0.49286656  0.09026837  0.25321618     1.01550
C4144       C  0.54532510  0.08246089  0.34183750     1.14480
C4145       C  0.96026863  0.14614737  0.31181607     1.05260
O4146       O  0.50047032  0.16163848  0.24027157    -0.94360
O4147       O  0.56866211  0.18128398  0.26466178    -0.90100
O4148       O  0.62146120  0.17237597  0.26233464    -0.83250
C4149       C  0.59949220  0.18325028  0.25846842     1.11900
O4150       O  0.53725688  0.13792803  0.39117624    -0.96330
Zr4151     Zr  0.57528692  0.14218365  0.35274636     1.88940
O4152       O  0.63674459  0.16694887  0.31947791    -0.72980
O4153       O  0.51493451  0.18657303  0.29468040    -0.52240
O4154       O  0.56087667  0.16932633  0.36988428    -0.96920
O4155       O  0.59661320  0.12920576  0.39470286    -0.54140
O4156       O  0.62821017  0.15392688  0.35987374    -0.73500
C4157       C  0.63754774  0.16622773  0.34622406     0.98840
O4158       O  0.66353114  0.14873765  0.24919422    -0.62320
O4159       O  0.62245496  0.08242184  0.27518303    -0.57120
O4160       O  0.67125296  0.13335621  0.29967244    -0.93800
O4161       O  0.66273816  0.10673115  0.31112451    -0.92230
O4162       O  0.58622738  0.09517272  0.22025316    -0.92590
O4163       O  0.58552167  0.12527287  0.19803943    -0.91370
C4164       C  0.68074818  0.11947139  0.30897113     1.17690
H4165       H  0.54991631  0.09077239  0.27754961     0.33630
H4166       H  0.57689425  0.15183218  0.23864667     0.44480
H4167       H  0.63482508  0.12903615  0.33754615     0.38010
H4168       H  0.01190905  0.14608914  0.33879414     0.34490
H4169       H  0.51862286  0.11874750  0.19087731     0.26280
H4170       H  0.99280988  0.18772044  0.28633548     0.32220
H4171       H  0.57183321  0.17020834  0.38834139     0.38130
H4172       H  0.57089633  0.09058131  0.20614406     0.32580
H4173       H  0.64081732  0.07696842  0.28497321     0.31460
H4174       H  0.63719524  0.07892290  0.33936462     0.33140
H4175       H  0.60577683  0.13826935  0.40612933     0.32110
H4176       H  0.60737542  0.12906826  0.20442175     0.36110
H4177       H  0.67215050  0.13753414  0.24649323     0.28840
H4178       H  0.95567234  0.10665735  0.33915830     0.33080
H4179       H  0.51987087  0.14624194  0.38883481     0.35930
H4180       H  0.60468168  0.07418315  0.27491747     0.28540
H4181       H  0.65143878  0.15092805  0.23162816     0.41410
H4182       H  0.97777211  0.15878533  0.24559521     0.31460
H4183       H  0.49812535  0.12816446  0.21335127     0.39080
H4184       H  0.61600447  0.12297599  0.38831360     0.30930
H4185       H  0.01129717  0.18658723  0.31512027     0.30990
H4186       H  0.97583259  0.11849870  0.35883322     0.31260
Zr4187     Zr  0.88013863  0.14063625  0.80855831     2.17510
O4188       O  0.91719887  0.14215007  0.84876499    -0.51100
O4189       O  0.90406533  0.16110108  0.77768692    -0.74300
O4190       O  0.92261715  0.12266323  0.79112650    -0.81090
O4191       O  0.82170663  0.17049102  0.83886914    -0.82830
O4192       O  0.91430417  0.09638754  0.79984006    -0.78460
O4193       O  0.87645656  0.16552271  0.83557385    -0.90090
O4194       O  0.87321760  0.16027640  0.73803413    -0.76050
O4195       O  0.87316343  0.12467297  0.76684361    -0.85540
O4196       O  0.83617673  0.15371041  0.78480441    -0.85230
O4197       O  0.86738377  0.11312034  0.82263256    -0.71990
O4198       O  0.83371129  0.13956808  0.83866913    -0.84130
Zr4199     Zr  0.77052908  0.10876608  0.78848965     2.26420
Zr4200     Zr  0.85871383  0.09699304  0.78000024     2.06270
Zr4201     Zr  0.78909432  0.15130977  0.81341876     2.10050
Zr4202     Zr  0.83043390  0.13848225  0.74299862     1.78760
O4203       O  0.76325486  0.16581102  0.85210579    -0.92930
O4204       O  0.86440841  0.12907998  0.70439114    -0.40740
O4205       O  0.78169322  0.13588372  0.77145090    -0.77370
O4206       O  0.81532053  0.11074334  0.75587488    -0.96060
O4207       O  0.81472539  0.09618429  0.81244821    -0.89360
O4208       O  0.77869652  0.12456420  0.82984489    -0.92200
C4209       C  0.89678017  0.16632838  0.75318225     1.01550
C4210       C  0.85165555  0.17342937  0.84459742     1.14480
C4211       C  0.93120062  0.10944454  0.80307261     1.05260
O4212       O  0.88588219  0.09454083  0.73501150    -0.94360
O4213       O  0.82132280  0.07456861  0.76189351    -0.90100
O4214       O  0.76821856  0.08283763  0.76469820    -0.83250
C4215       C  0.79000445  0.07231513  0.75811057     1.11900
O4216       O  0.86647697  0.11550400  0.88850519    -0.96330
Zr4217     Zr  0.82306617  0.11250475  0.85358501     1.88940
O4218       O  0.75926686  0.08756752  0.82344422    -0.72980
O4219       O  0.87593455  0.06914099  0.79013875    -0.52240
O4220       O  0.84041920  0.08542736  0.86845471    -0.96920
O4221       O  0.80519664  0.12606124  0.89637719    -0.54140
O4222       O  0.77293299  0.09926052  0.86463194    -0.73500
C4223       C  0.76133628  0.08754236  0.85027270     0.98840
O4224       O  0.72501200  0.10619593  0.75545222    -0.62320
O4225       O  0.77256088  0.17351555  0.78289342    -0.57120
O4226       O  0.72153199  0.12117280  0.80649656    -0.93800
O4227       O  0.73054959  0.14775371  0.81843429    -0.92230
O4228       O  0.79936486  0.16179447  0.72596446    -0.92590
O4229       O  0.79859458  0.13253722  0.70098512    -0.91370
C4230       C  0.71244409  0.13504775  0.81633847     1.17690
H4231       H  0.84027639  0.16515793  0.78159404     0.33630
H4232       H  0.80988901  0.10476070  0.73899648     0.44480
H4233       H  0.76089004  0.12472504  0.84298147     0.38010
H4234       H  0.88430252  0.10899356  0.83478769     0.34490
H4235       H  0.86468529  0.13833746  0.69119440     0.26280
H4236       H  0.89690380  0.06763250  0.78012683     0.32220
H4237       H  0.82803878  0.08335953  0.88581296     0.38130
H4238       H  0.81367881  0.16688172  0.71183185     0.32580
H4239       H  0.75015516  0.17640267  0.78903894     0.31460
H4240       H  0.75524859  0.17618144  0.84403953     0.33140
H4241       H  0.79682254  0.11717305  0.90831175     0.32110
H4242       H  0.77770020  0.12801727  0.70798410     0.36110
H4243       H  0.71578578  0.11733523  0.75382332     0.28840
H4244       H  0.92749266  0.15309485  0.84908261     0.33080
H4245       H  0.86000785  0.10851668  0.90434787     0.35930
H4246       H  0.78623770  0.18289806  0.78897298     0.28540
H4247       H  0.73546022  0.10425572  0.73709396     0.41410
H4248       H  0.90877435  0.09796109  0.73875460     0.31460
H4249       H  0.88695782  0.12874881  0.71209603     0.39080
H4250       H  0.78542743  0.13228695  0.89087911     0.30930
H4251       H  0.88192706  0.06921407  0.81021513     0.30990
H4252       H  0.90288107  0.14197583  0.86539732     0.31260
Zr4253     Zr  0.88106196  0.11411243  0.32847497     2.17510
O4254       O  0.92481821  0.10842370  0.29536140    -0.51100
O4255       O  0.90459144  0.09336850  0.35926932    -0.74300
O4256       O  0.92445885  0.13298166  0.34245847    -0.81090
O4257       O  0.82314180  0.08065047  0.30982162    -0.82830
O4258       O  0.91437952  0.15924319  0.33457020    -0.78460
O4259       O  0.86910850  0.09284330  0.29403098    -0.90090
O4260       O  0.87648153  0.09521627  0.40002879    -0.76050
O4261       O  0.87497405  0.13047606  0.36985055    -0.85540
O4262       O  0.83819352  0.10110419  0.35347944    -0.85230
O4263       O  0.86775864  0.14152827  0.31387968    -0.71990
O4264       O  0.83373918  0.11485369  0.29890946    -0.84130
Zr4265     Zr  0.77163762  0.14564989  0.34916688     2.26420
Zr4266     Zr  0.85977988  0.15802654  0.35625547     2.06270
Zr4267     Zr  0.79003971  0.10296293  0.32519154     2.10050
Zr4268     Zr  0.83322758  0.11673712  0.39477989     1.78760
O4269       O  0.76912021  0.08920549  0.28343818    -0.92930
O4270       O  0.86787865  0.12647139  0.43300495    -0.40740
O4271       O  0.78366182  0.11875991  0.36682662    -0.77370
O4272       O  0.81736047  0.14427435  0.38129860    -0.96060
O4273       O  0.81484641  0.15838054  0.32438913    -0.89360
O4274       O  0.77943139  0.12955525  0.30815507    -0.92200
C4275       C  0.89886869  0.08871541  0.38436109     1.01550
C4276       C  0.84743951  0.08153704  0.29340663     1.14480
C4277       C  0.93208863  0.14648337  0.33093708     1.05260
O4278       O  0.88855735  0.16015717  0.40080066    -0.94360
O4279       O  0.82176184  0.18030554  0.37449041    -0.90100
O4280       O  0.76885210  0.17157248  0.37283379    -0.83250
C4281       C  0.79045867  0.18233751  0.37886500     1.11900
O4282       O  0.86500700  0.13824861  0.24832791    -0.96330
Zr4283     Zr  0.82252350  0.14177415  0.28355476     1.88940
O4284       O  0.75918742  0.16662410  0.31413830    -0.72980
O4285       O  0.87656096  0.18611311  0.34762618    -0.52240
O4286       O  0.83903421  0.16884238  0.26809915    -0.96920
O4287       O  0.80350044  0.12830535  0.24087235    -0.54140
O4288       O  0.77152111  0.15452800  0.27312977    -0.73500
C4289       C  0.76037622  0.16638254  0.28730264     0.98840
O4290       O  0.72662899  0.14782308  0.38238262    -0.62320
O4291       O  0.76701574  0.08258829  0.35626029    -0.57120
O4292       O  0.72258822  0.13319800  0.33100447    -0.93800
O4293       O  0.73143923  0.10666814  0.31858084    -0.92230
O4294       O  0.80275626  0.09339234  0.41226534    -0.92590
O4295       O  0.80227493  0.12286034  0.43692227    -0.91370
C4296       C  0.71343858  0.11943999  0.32065651     1.17690
H4297       H  0.84237781  0.08973925  0.35733358     0.33630
H4298       H  0.81227252  0.15037943  0.39807854     0.44480
H4299       H  0.76160368  0.12920436  0.29492038     0.38010
H4300       H  0.88400631  0.14553683  0.30111558     0.34490
H4301       H  0.86857751  0.11728408  0.44633744     0.26280
H4302       H  0.89806217  0.18737677  0.35708126     0.32220
H4303       H  0.82621653  0.17073222  0.25080245     0.38130
H4304       H  0.81747169  0.08835505  0.42626917     0.32580
H4305       H  0.75081583  0.07659669  0.34460870     0.31460
H4306       H  0.75841476  0.07916749  0.29033872     0.33140
H4307       H  0.79507896  0.13723220  0.22898183     0.32110
H4308       H  0.78099818  0.12705092  0.42999148     0.36110
H4309       H  0.71769327  0.13661938  0.38391737     0.28840
H4310       H  0.92846352  0.09647169  0.29581703     0.33080
H4311       H  0.85891714  0.14559466  0.23280636     0.35930
H4312       H  0.78497790  0.07464964  0.35920516     0.28540
H4313       H  0.73735384  0.14976479  0.40071785     0.41410
H4314       H  0.91160453  0.15745275  0.39634973     0.31460
H4315       H  0.89024509  0.12684667  0.42511771     0.39080
H4316       H  0.78371440  0.12216966  0.24647827     0.30930
H4317       H  0.88144756  0.18654785  0.32740085     0.30990
H4318       H  0.91561402  0.11067227  0.27659317     0.31260
Zr4319     Zr  0.51248690  0.14197300  0.82877237     2.17510
O4320       O  0.97175336  0.15127619  0.79531835    -0.51100
O4321       O  0.98861135  0.16226173  0.86041735    -0.74300
O4322       O  0.96486068  0.12462553  0.83247277    -0.81090
O4323       O  0.57002211  0.17467972  0.81161546    -0.82830
O4324       O  0.97708490  0.09799549  0.82786442    -0.78460
O4325       O  0.52312892  0.16296983  0.79556462    -0.90090
O4326       O  0.51607357  0.16030003  0.90163395    -0.76050
O4327       O  0.51533365  0.12545234  0.86948208    -0.85540
O4328       O  0.55467561  0.15446794  0.85586585    -0.85230
O4329       O  0.52514802  0.11503560  0.81169368    -0.71990
O4330       O  0.56051906  0.14132300  0.80044375    -0.84130
Zr4331     Zr  0.61897608  0.10965181  0.85123193     2.26420
Zr4332     Zr  0.52960269  0.09829690  0.85335495     2.06270
Zr4333     Zr  0.60332850  0.15273789  0.82877185     2.10050
Zr4334     Zr  0.55755767  0.13824855  0.89633065     1.78760
O4335       O  0.62690912  0.16663848  0.78876861    -0.92930
O4336       O  0.52142571  0.12875950  0.93315667    -0.40740
O4337       O  0.60775032  0.13647386  0.86977035    -0.77370
O4338       O  0.57180120  0.11081237  0.88125119    -0.96060
O4339       O  0.57648200  0.09764304  0.82385097    -0.89360
O4340       O  0.61409248  0.12623233  0.81083764    -0.92200
C4341       C  0.49430611  0.16694477  0.88564297     1.01550
C4342       C  0.54504704  0.17405390  0.79553596     1.14480
C4343       C  0.95890816  0.11041177  0.82259523     1.05260
O4344       O  0.49831510  0.09666308  0.89639418    -0.94360
O4345       O  0.56482557  0.07521005  0.87028772    -0.90100
O4346       O  0.61806370  0.08342544  0.87278294    -0.83250
C4347       C  0.59553229  0.07284182  0.87622463     1.11900
O4348       O  0.53210895  0.11871805  0.74619826    -0.96330
Zr4349     Zr  0.57204170  0.11461594  0.78361344     1.88940
O4350       O  0.63332365  0.08905630  0.81595615    -0.72980
O4351       O  0.51022144  0.07048602  0.84515619    -0.52240
O4352       O  0.55576870  0.08772239  0.76627911    -0.96920
O4353       O  0.59363249  0.12839911  0.74266582    -0.54140
O4354       O  0.62334627  0.10162169  0.77512325    -0.73500
C4355       C  0.63352658  0.08958356  0.78916572     0.98840
O4356       O  0.66173022  0.10640959  0.88658530    -0.62320
O4357       O  0.62451257  0.17346502  0.86082425    -0.57120
O4358       O  0.66958676  0.12162060  0.83663845    -0.93800
O4359       O  0.66211569  0.14830584  0.82504854    -0.92230
O4360       O  0.58854389  0.16085476  0.91667907    -0.92590
O4361       O  0.58741147  0.13058190  0.93839335    -0.91370
C4362       C  0.67960895  0.13536479  0.82736724     1.17690
H4363       H  0.55074322  0.16584481  0.86007082     0.33630
H4364       H  0.57570659  0.10431812  0.89770178     0.44480
H4365       H  0.63268443  0.12656841  0.79856550     0.38010
H4366       H  0.50973198  0.11161186  0.79752706     0.34490
H4367       H  0.52130711  0.13776365  0.94709463     0.26280
H4368       H  0.98782032  0.07013954  0.85298399     0.32220
H4369       H  0.56948429  0.08582621  0.74955902     0.38130
H4370       H  0.57415475  0.16537315  0.93142649     0.32580
H4371       H  0.64243073  0.17882001  0.85044699     0.31460
H4372       H  0.63677228  0.17675192  0.79656912     0.33140
H4373       H  0.60263301  0.11954936  0.73075542     0.32110
H4374       H  0.60886399  0.12663690  0.93151306     0.36110
H4375       H  0.67051564  0.11754323  0.88985325     0.28840
H4376       H  0.95075179  0.15074061  0.80532535     0.33080
H4377       H  0.53865183  0.11120307  0.73090874     0.35930
H4378       H  0.60700580  0.18181890  0.86175951     0.28540
H4379       H  0.64985198  0.10393907  0.90404241     0.41410
H4380       H  0.97526740  0.09828132  0.89046676     0.31460
H4381       H  0.49919300  0.12898729  0.92479419     0.39080
H4382       H  0.61313665  0.13441501  0.74958233     0.30930
H4383       H  0.00714153  0.06954018  0.82467107     0.30990
H4384       H  0.97058886  0.14251813  0.78096549     0.31260
C4385       C  0.93543528  0.06315718  0.40191681    -0.13040
C4386       C  0.91851024  0.07489839  0.39493174    -0.14600
C4387       C  0.55417779  0.06262216  0.38175941    -0.13040
C4388       C  0.54480555  0.07117135  0.36353669    -0.14600
C4389       C  0.59426611  0.02988095  0.55440440    -0.13040
C4390       C  0.59795376  0.03016506  0.57931819    -0.14600
C4391       C  0.64005782  0.07527078  0.77334294    -0.13040
C4392       C  0.63644509  0.06414042  0.75723564    -0.14600
C4393       C  0.77688023  0.05708563  0.74586180    -0.13040
C4394       C  0.75940587  0.04601702  0.73667342    -0.14600
C4395       C  0.83956113  0.06022579  0.25421115    -0.13040
C4396       C  0.84763960  0.06997482  0.27151190    -0.14600
C4397       C  0.97370807  0.07627390  0.24347095    -0.13040
C4398       C  0.95816528  0.06407428  0.23697580    -0.14600
C4399       C  0.95883881  0.98896606  0.33136844    -0.13040
C4400       C  0.94470088  0.98913854  0.30894969    -0.14600
C4401       C  0.68291519  0.97372188  0.80448118    -0.13040
C4402       C  0.68677048  0.97408398  0.82941669    -0.14600
C4403       C  0.79858061  0.02125540  0.05690400    -0.13040
C4404       C  0.80624786  0.02069642  0.08133754    -0.14600
C4405       C  0.62395655  0.04636000  0.89672188    -0.13040
C4406       C  0.60704857  0.05738526  0.88749282    -0.14600
C4407       C  0.75738300  0.06165086  0.88110628    -0.13040
C4408       C  0.75507628  0.07303891  0.86554101    -0.14600
C4409       C  0.85603938  0.18588041  0.86447446    -0.13040
C4410       C  0.84709083  0.19517646  0.88202018    -0.14600
C4411       C  0.96036312  0.19333677  0.90270170    -0.13040
C4412       C  0.97581946  0.18111977  0.89591615    -0.14600
C4413       C  0.63769511  0.19127544  0.37888184    -0.13040
C4414       C  0.64285925  0.18053392  0.36238314    -0.14600
C4415       C  0.75916311  0.20848026  0.40033609    -0.13040
C4416       C  0.77700712  0.19754418  0.39114357    -0.14600
C4417       C  0.94121328  0.26780289  0.82999421    -0.13040
C4418       C  0.95566262  0.26753915  0.80754942    -0.14600
C4419       C  0.58957271  0.22594246  0.58232696    -0.13040
C4420       C  0.59383112  0.22537374  0.55738001    -0.14600
C4421       C  0.93254553  0.19219260  0.73590342    -0.13040
C4422       C  0.91598869  0.18030564  0.74273887    -0.14600
C4423       C  0.54440699  0.18543317  0.77407104    -0.13040
C4424       C  0.55307136  0.19403306  0.75580752    -0.14600
C4425       C  0.79976583  0.22845756  0.07960575    -0.13040
C4426       C  0.80682990  0.22874433  0.05508937    -0.14600
C4427       C  0.69619878  0.28062275  0.30739237    -0.13040
C4428       C  0.68917633  0.28035729  0.33196837    -0.14600
C4429       C  0.62919084  0.20952476  0.23710953    -0.13040
C4430       C  0.61193544  0.19854969  0.24648376    -0.14600
C4431       C  0.75696889  0.19201321  0.25605263    -0.13040
C4432       C  0.75402745  0.18077116  0.27178893    -0.14600
C4433       C  0.62799293  0.92367588  0.61989840    -0.13040
C4434       C  0.62832754  0.93464323  0.63658349    -0.14600
C4435       C  0.65149446  0.96077888  0.48454169    -0.13040
C4436       C  0.66853264  0.94981639  0.49375826    -0.14600
C4437       C  0.52332067  0.92778118  0.50810094    -0.13040
C4438       C  0.02320100  0.93913901  0.49235925    -0.14600
C4439       C  0.49819321  0.94947119  0.63615001    -0.13040
C4440       C  0.51634533  0.96030782  0.64520405    -0.14600
C4441       C  0.93604467  0.81250303  0.50071881    -0.13040
C4442       C  0.93457395  0.82192106  0.51980389    -0.14600
C4443       C  0.78714269  0.82311939  0.49161238    -0.13040
C4444       C  0.80062686  0.81064275  0.48400120    -0.14600
C4445       C  0.80934586  0.73714376  0.54946114    -0.13040
C4446       C  0.80033879  0.73798038  0.57322529    -0.14600
C4447       C  0.84755856  0.81414840  0.64801254    -0.13040
C4448       C  0.86488143  0.82555244  0.64063495    -0.14600
C4449       C  0.71916190  0.81944805  0.63781613    -0.13040
C4450       C  0.72555896  0.82746204  0.61796243    -0.14600
C4451       C  0.67555541  0.77220196  0.82729683    -0.13040
C4452       C  0.68531782  0.77197372  0.80363411    -0.14600
C4453       C  0.58792314  0.72561395  0.08158125    -0.13040
C4454       C  0.59103428  0.72650316  0.05689853    -0.14600
C4455       C  0.96280763  0.76946620  0.30458253    -0.13040
C4456       C  0.95332167  0.76936985  0.32838076    -0.14600
C4457       C  0.80118367  0.68221856  0.75625469    -0.13040
C4458       C  0.79980094  0.69296338  0.73981347    -0.14600
C4459       C  0.71645486  0.69613138  0.89809402    -0.13040
C4460       C  0.73230998  0.68419844  0.89015740    -0.14600
C4461       C  0.01663996  0.31586014  0.64187662    -0.13040
C4462       C  0.51726829  0.32661732  0.62479376    -0.14600
C4463       C  0.49453986  0.30386044  0.49633307    -0.13040
C4464       C  0.51329434  0.29317004  0.48786559    -0.14600
C4465       C  0.54207916  0.68435515  0.27148347    -0.13040
C4466       C  0.54913863  0.69372305  0.25379229    -0.14600
C4467       C  0.98409369  0.67812721  0.39097709    -0.13040
C4468       C  0.97033071  0.69061615  0.39819896    -0.14600
C4469       C  0.85226784  0.69677650  0.37890996    -0.13040
C4470       C  0.85811364  0.68625191  0.36240732    -0.14600
C4471       C  0.92888527  0.69111411  0.23394417    -0.13040
C4472       C  0.91328620  0.67911654  0.24146342    -0.14600
C4473       C  0.87593359  0.31711646  0.99484570    -0.13040
C4474       C  0.87183542  0.32819679  0.01119344    -0.14600
C4475       C  0.89044931  0.30685594  0.13982026    -0.13040
C4476       C  0.87109396  0.29657689  0.14880177    -0.14600
C4477       C  0.75429257  0.32128880  0.14048158    -0.13040
C4478       C  0.75725897  0.33192737  0.12357547    -0.14600
C4479       C  0.74579816  0.29596837  0.98403043    -0.13040
C4480       C  0.72692693  0.30611996  0.99361422    -0.14600
C4481       C  0.59628243  0.69532382  0.88164490    -0.13040
C4482       C  0.60332329  0.68651010  0.86285781    -0.14600
C4483       C  0.65815249  0.68316948  0.73956390    -0.13040
C4484       C  0.66972040  0.69614262  0.73215859    -0.14600
C4485       C  0.63044813  0.31933557  0.50238874    -0.13040
C4486       C  0.62840347  0.32989826  0.51985735    -0.14600
C4487       C  0.66524110  0.30510056  0.64444828    -0.13040
C4488       C  0.64782867  0.29421546  0.65322429    -0.14600
C4489       C  0.72938842  0.43413692  0.49500311    -0.13040
C4490       C  0.73301104  0.42610184  0.51509087    -0.14600
C4491       C  0.84047186  0.44124838  0.48550353    -0.13040
C4492       C  0.85703499  0.42914915  0.49220937    -0.14600
C4493       C  0.76300843  0.55974443  0.38519150    -0.13040
C4494       C  0.76040547  0.57106150  0.36952216    -0.14600
C4495       C  0.62678568  0.54459481  0.39861417    -0.13040
C4496       C  0.60947855  0.55504469  0.38808348    -0.14600
C4497       C  0.80504610  0.44476915  0.65043142    -0.13040
C4498       C  0.79005675  0.43220495  0.64413235    -0.14600
C4499       C  0.80846633  0.51859672  0.55784554    -0.13040
C4500       C  0.82219061  0.51964350  0.58034419    -0.14600
C4501       C  0.88594460  0.57392255  0.76853598    -0.13040
C4502       C  0.88135710  0.56292255  0.75219789    -0.14600
C4503       C  0.51801664  0.54777383  0.73441008    -0.13040
C4504       C  0.53616040  0.55815396  0.74434204    -0.14600
C4505       C  0.90886640  0.43840835  0.63584814    -0.13040
C4506       C  0.90722199  0.42927732  0.61670948    -0.14600
C4507       C  0.94910069  0.47754209  0.82829311    -0.13040
C4508       C  0.94787355  0.47768642  0.80323787    -0.14600
C4509       C  0.88163494  0.54889979  0.89659972    -0.13040
C4510       C  0.86348331  0.55952100  0.88738449    -0.14600
C4511       C  0.51252169  0.57386462  0.86548506    -0.13040
C4512       C  0.51674103  0.56279479  0.88135851    -0.14600
C4513       C  0.58997075  0.44488119  0.98354621    -0.13040
C4514       C  0.60342309  0.43213868  0.99054488    -0.14600
C4515       C  0.95705202  0.44023539  0.00337353    -0.13040
C4516       C  0.95826672  0.43152518  0.02307287    -0.14600
C4517       C  0.58546729  0.52044013  0.07567121    -0.13040
C4518       C  0.57337132  0.52101475  0.05253287    -0.14600
C4519       C  0.69364152  0.47433733  0.32954841    -0.13040
C4520       C  0.69160843  0.47433495  0.30453621    -0.14600
C4521       C  0.67622135  0.43535732  0.13037489    -0.13040
C4522       C  0.66948525  0.42776596  0.10992915    -0.14600
C4523       C  0.54503272  0.44333961  0.14844548    -0.13040
C4524       C  0.52825305  0.43136059  0.14164699    -0.14600
C4525       C  0.76242093  0.54527733  0.23672741    -0.13040
C4526       C  0.78056909  0.55583045  0.24649583    -0.14600
C4527       C  0.63745033  0.57060181  0.26646570    -0.13040
C4528       C  0.63201060  0.55966580  0.25029732    -0.14600
C4529       C  0.62113920  0.82969805  0.00835543    -0.13040
C4530       C  0.62512942  0.81868203  0.99203929    -0.14600
C4531       C  0.63812778  0.79419242  0.14554776    -0.13040
C4532       C  0.65509114  0.80494797  0.13577313    -0.14600
C4533       C  0.70051871  0.93086229  0.02652505    -0.13040
C4534       C  0.69788400  0.93848288  0.00556617    -0.14600
C4535       C  0.76881712  0.93174763  0.14563408    -0.13040
C4536       C  0.78201345  0.94429403  0.15381861    -0.14600
C4537       C  0.00861574  0.81504791  0.13950308    -0.13040
C4538       C  0.00715900  0.82675963  0.12470534    -0.14600
C4539       C  0.98372714  0.80897033  0.99719054    -0.13040
C4540       C  0.50237882  0.79841598  0.98830107    -0.14600
C4541       C  0.91832902  0.94151659  0.14002094    -0.13040
C4542       C  0.91759904  0.93279893  0.11994233    -0.14600
C4543       C  0.85566506  0.93421894  0.99319792    -0.13040
C4544       C  0.83974815  0.94613045  0.98568978    -0.14600
loop_ 
_geom_bond_atom_site_label_1 
_geom_bond_atom_site_label_2 
_geom_bond_distance 
_geom_bond_site_symmetry_2 
_ccdc_geom_bond_type 
Zr1           O2   2.440       .  S
Zr1           O3   2.437       .  S
Zr1           O4   2.428       .  S
Zr1           O7   2.424       .  S
Zr1           O9   2.378       .  S
Zr1          O10   2.405       .  S
Zr1          O11   2.420       .  S
Zr1          O12   2.403       .  S
O2           H58   0.990       .  S
O2           H66   0.991       .  S
O3           C23   1.283       .  A
O4           C25   1.275       .  A
O5          Zr15   2.472       .  S
O5           C24   1.285       .  A
O6          Zr14   2.380       .  S
O6           C25   1.266       .  A
O7           C24   1.275       .  A
O8          Zr16   2.490       .  S
O8           C23   1.293   1_556  A
O9          Zr14   2.399       .  S
O9          Zr16   2.359   1_554  S
O10         Zr15   2.439       .  S
O10         Zr16   2.372   1_554  S
O10          H45   0.966       .  S
O11         Zr14   2.406       .  S
O11         Zr31   2.372       .  S
O11          H48   0.965       .  S
O12         Zr15   2.406       .  S
O12         Zr31   2.351       .  S
Zr13       O2310   2.440       .  S
Zr13         O40   2.377       .  S
Zr13       O2304   2.449       .  S
Zr13       O2300   2.371       .  S
Zr13         O19   2.406       .  S
Zr13         O20   2.411       .  S
Zr13         O21   2.358       .  S
Zr13         O22   2.375       .  S
Zr14         O33   2.436       .  S
Zr14         O26   2.434       .  S
Zr14       O2299   2.418       .  S
Zr14         O20   2.393       .  S
Zr14         O21   2.369       .  S
Zr15         O17   2.437       .  S
Zr15         O39   2.436   1_554  S
Zr15         O41   2.541       .  S
Zr15         O19   2.386       .  S
Zr15         O22   2.376       .  S
Zr16         O42   2.435       .  S
Zr16         O43   2.434       .  S
Zr16         O18   2.436       .  S
Zr16         O19   2.429   1_556  S
Zr16         O20   2.417   1_556  S
O17          H54   0.990       .  S
O18          H49   0.990       .  S
O18          H63   0.990   1_556  S
O20        H2318   0.966       .  S
O21         Zr31   2.368       .  S
O22         Zr31   2.398       .  S
O22          H47   0.965       .  S
C23        C2271   1.470   1_554  S
C24          C90   1.467       .  S
C25        C2270   1.415       .  S
O26          H62   0.990       .  S
O27       Zr2286   2.418   1_455  S
O27          C29   1.276       .  A
O28       Zr2285   2.371   1_455  S
O28          C29   1.271       .  A
C29          C95   1.441       .  S
O30         Zr31   2.441       .  S
O30          H59   0.990       .  S
Zr31         O34   2.437       .  S
Zr31         O35   2.444       .  S
Zr31         O36   2.383       .  S
O32       Zr2285   2.449   1_455  S
O32        C2309   1.284   1_455  A
O33          H65   0.990       .  S
O33        H2322   0.990       .  S
O34          H51   0.990       .  S
O35          H55   0.990       .  S
O35          H64   0.989       .  S
O36          C37   1.267       .  A
C37        O2304   1.284       .  A
C37        C2266   1.419       .  S
O38       Zr2285   2.440   1_455  S
O38          H57   0.990   1_554  S
O38          H61   0.990       .  S
O39          H53   0.990       .  S
O39          H60   0.990       .  S
O40          C44   1.273       .  A
O41          C44   1.305       .  A
O42          H52   0.990       .  S
O43        H2328   0.990       .  S
C44        C2267   1.466   1_554  S
H46        O2292   0.966   1_455  S
H50        O2305   0.990   1_455  S
H56        O2315   0.990       .  S
Zr67         O68   2.443       .  S
Zr67         O69   2.438       .  S
Zr67         O70   2.404       .  S
Zr67         O73   2.416       .  S
Zr67         O75   2.382       .  S
Zr67         O76   2.397       .  S
Zr67         O77   2.427       .  S
Zr67         O78   2.405       .  S
O68         H124   0.990       .  S
O68         H132   0.990       .  S
O69          C89   1.284       .  A
O70          C91   1.269       .  A
O71         Zr81   2.468       .  S
O71          C90   1.284       .  A
O72         Zr80   2.379       .  S
O72          C91   1.264       .  A
O73          C90   1.274       .  A
O74         Zr82   2.468       .  S
O74          C89   1.289       .  A
O75         Zr80   2.393       .  S
O75         Zr82   2.356       .  S
O76         Zr81   2.428       .  S
O76         Zr82   2.378       .  S
O76         H111   0.966       .  S
O77         Zr80   2.404       .  S
O77         Zr97   2.380       .  S
O77         H114   0.965       .  S
O78         Zr81   2.405       .  S
O78         Zr97   2.359       .  S
Zr79        O104   2.446       .  S
Zr79         O98   2.443       .  S
Zr79        O106   2.386       .  S
Zr79         O94   2.377       .  S
Zr79         O85   2.400       .  S
Zr79         O86   2.402       .  S
Zr79         O87   2.375       .  S
Zr79         O88   2.388       .  S
Zr80         O99   2.438       .  S
Zr80         O92   2.435       .  S
Zr80         O93   2.408       .  S
Zr80         O86   2.398       .  S
Zr80         O87   2.368       .  S
Zr81         O83   2.436       .  S
Zr81        O105   2.436       .  S
Zr81        O107   2.503       .  S
Zr81         O85   2.395       .  S
Zr81         O88   2.389       .  S
Zr82        O108   2.434       .  S
Zr82        O109   2.434       .  S
Zr82         O84   2.436       .  S
Zr82         O85   2.416       .  S
Zr82         O86   2.409       .  S
O83         H120   0.990       .  S
O84         H115   0.990       .  S
O84         H129   0.990       .  S
O86         H112   0.966       .  S
O87         Zr97   2.377       .  S
O88         Zr97   2.392       .  S
O88         H113   0.966       .  S
C89        C2263   1.459       .  S
C91        C2261   1.410       .  S
O92         H128   0.990       .  S
O93          C95   1.276       .  A
O94          C95   1.277       .  A
O96         Zr97   2.437   1_556  S
O96         H125   0.990   1_556  S
Zr97        O100   2.438   1_554  S
Zr97        O101   2.439       .  S
Zr97        O102   2.393       .  S
O98         C103   1.279       .  A
O99         H116   0.990       .  S
O99         H131   0.990       .  S
O100        H117   0.990       .  S
O101        H121   0.990       .  S
O101        H130   0.990       .  S
O102        C103   1.265       .  A
C103       C2257   1.424       .  S
O104        H123   0.990       .  S
O104        H127   0.990       .  S
O105        H119   0.990       .  S
O105        H126   0.990       .  S
O106        C110   1.274       .  A
O107        C110   1.297       .  A
O108        H118   0.990       .  S
O109        H122   0.990       .  S
C110       C2260   1.451       .  S
Zr133       O134   2.443       .  S
Zr133       O135   2.479       .  S
Zr133       O136   2.417       .  S
Zr133       O139   2.384       .  S
Zr133       O141   2.372       .  S
Zr133       O142   2.390       .  S
Zr133       O143   2.422       .  S
Zr133       O144   2.425       .  S
O134        H190   0.990       .  S
O134        H198   0.990       .  S
O135        C155   1.290       .  A
O136        C157   1.278       .  A
O137       Zr147   2.439       .  S
O137        C156   1.278       .  A
O138       Zr146   2.441       .  S
O138        C157   1.281       .  A
O139        C156   1.265       .  A
O140       Zr148   2.449       .  S
O140        C155   1.284       .  A
O141       Zr146   2.394       .  S
O141       Zr148   2.387       .  S
O142       Zr147   2.418       .  S
O142       Zr148   2.356       .  S
O142        H177   0.966       .  S
O143       Zr146   2.398       .  S
O143       Zr163   2.401       .  S
O143        H180   0.963       .  S
O144       Zr147   2.398       .  S
O144       Zr163   2.412       .  S
Zr145       O170   2.442       .  S
Zr145       O164   2.502       .  S
Zr145       O172   2.428       .  S
Zr145       O160   2.371       .  S
Zr145       O151   2.410       .  S
Zr145       O152   2.438       .  S
Zr145       O153   2.371       .  S
Zr145       O154   2.370       .  S
Zr146       O165   2.441       .  S
Zr146       O158   2.434       .  S
Zr146       O159   2.418       .  S
Zr146       O152   2.402       .  S
Zr146       O153   2.407       .  S
Zr147       O149   2.435       .  S
Zr147       O171   2.436       .  S
Zr147       O173   2.448       .  S
Zr147       O151   2.394       .  S
Zr147       O154   2.405       .  S
Zr148       O174   2.435       .  S
Zr148       O175   2.435       .  S
Zr148       O150   2.437       .  S
Zr148       O151   2.413       .  S
Zr148       O152   2.391       .  S
O149        H186   0.990       .  S
O150        H181   0.990       .  S
O150        H195   0.990       .  S
O152        H178   0.966       .  S
O153       Zr163   2.367       .  S
O154       Zr163   2.382       .  S
O154        H179   0.965       .  S
C155       C2253   1.470       .  S
C156       C2256   1.423       .  S
C157       C2248   1.424       .  S
O158        H194   0.990       .  S
O159        C161   1.277       .  A
O160        C161   1.268       .  A
C161       C2249   1.394       .  S
O162       Zr163   2.440       .  S
O162        H191   0.990       .  S
Zr163       O166   2.438       .  S
Zr163       O167   2.442       .  S
Zr163       O168   2.459       .  S
O164        C169   1.295       .  A
O165        H182   0.990       .  S
O165        H197   0.990       .  S
O166        H183   0.990       .  S
O167        H187   0.990       .  S
O167        H196   0.990       .  S
O168        C169   1.286       .  A
C169       C2251   1.487       .  S
O170        H189   0.991       .  S
O170        H193   0.991       .  S
O171        H185   0.990       .  S
O171        H192   0.990       .  S
O172        C176   1.282       .  A
O173        C176   1.285       .  A
O174        H184   0.990       .  S
O175        H188   0.990       .  S
C176       C2245   1.445       .  S
Zr199       O200   2.443       .  S
Zr199       O205   2.387   1_655  S
Zr199      O2473   2.480       .  S
Zr199      O2474   2.418       .  S
Zr199       O209   2.418   1_655  S
Zr199       O210   2.426   1_655  S
Zr199      O2479   2.369       .  S
Zr199      O2480   2.388       .  S
O200        H256   0.990       .  S
O200        H264   0.991       .  S
O201      Zr2471   2.480       .  S
O201        C221   1.290       .  A
O202      Zr2471   2.418       .  S
O202        C223   1.279       .  A
O203       Zr213   2.440       .  S
O203        C222   1.280       .  A
O204       Zr212   2.441       .  S
O204        C223   1.282       .  A
O205        C222   1.266       .  A
O206       Zr214   2.445       .  S
O206        C221   1.283       .  A
O207       Zr212   2.396       .  S
O207       Zr214   2.386       .  S
O207      Zr2471   2.369       .  S
O208       Zr214   2.361       .  S
O208      Zr2471   2.388       .  S
O208      Zr2485   2.421       .  S
O208        H243   0.966       .  S
O209       Zr229   2.397       .  S
O209      Zr2484   2.396   1_455  S
O209        H246   0.964       .  S
O210       Zr213   2.400       .  S
O210       Zr229   2.413       .  S
Zr211      O2508   2.444   1_456  S
Zr211       O230   2.469       .  S
Zr211       O238   2.413   1_556  S
Zr211      O2498   2.366   1_455  S
Zr211       O219   2.367       .  S
Zr211       O220   2.369       .  S
Zr211      O2489   2.400   1_455  S
Zr211      O2490   2.412   1_455  S
Zr212       O231   2.437       .  S
Zr212       O224   2.435       .  S
Zr212       O225   2.421       .  S
Zr212       O218   2.404       .  S
Zr212      O2481   2.396       .  S
Zr212      O2491   2.392       .  S
Zr213       O215   2.435       .  S
Zr213       O237   2.435       .  S
Zr213       O239   2.467   1_556  S
Zr213       O220   2.396       .  S
Zr213      O2480   2.421   1_455  S
Zr213      O2489   2.392   1_455  S
Zr214       O240   2.435       .  S
Zr214       O241   2.435   1_556  S
Zr214       O216   2.436       .  S
Zr214       O217   2.410       .  S
Zr214       O218   2.393       .  S
O215        H252   0.990       .  S
O216        H247   0.990       .  S
O216        H261   0.990       .  S
O217      Zr2483   2.400       .  S
O217      Zr2485   2.392       .  S
O218      Zr2483   2.412       .  S
O218        H244   0.965       .  S
O219       Zr229   2.361       .  S
O219      Zr2484   2.392   1_455  S
O220       Zr229   2.374       .  S
O220        H245   0.965       .  S
C221       C2237   1.469       .  S
C222       C2240   1.423       .  S
C223       C2235   1.424       .  S
O224        H260   0.990       .  S
O225        C227   1.281       .  A
O226      Zr2483   2.366       .  S
O226        C227   1.271       .  A
C227       C2243   1.398   1_556  S
O228       Zr229   2.440       .  S
O228        H257   0.990       .  S
Zr229       O232   2.438       .  S
Zr229       O233   2.442       .  S
Zr229       O234   2.464       .  S
O230        C235   1.290       .  A
O231        H248   0.990       .  S
O231        H263   0.990       .  S
O232        H249   0.990       .  S
O233        H253   0.990       .  S
O233        H262   0.990       .  S
O234        C235   1.288       .  A
C235       C2241   1.471       .  S
O236      Zr2483   2.444   1_554  S
O236        H255   0.990       .  S
O236        H259   0.990       .  S
O237        H251   0.990       .  S
O237        H258   0.990       .  S
O238        C242   1.280       .  A
O239        C242   1.290       .  A
O240        H250   0.990       .  S
O241        H254   0.990       .  S
C242       C2246   1.443       .  S
Zr265       O266   2.443       .  S
Zr265       O267   2.468       .  S
Zr265       O268   2.422       .  S
Zr265       O271   2.387       .  S
Zr265       O273   2.370       .  S
Zr265       O274   2.392       .  S
Zr265       O275   2.415       .  S
Zr265       O276   2.424       .  S
O266        H322   0.990       .  S
O266        H330   0.990       .  S
O267        C287   1.288       .  A
O268        C289   1.279       .  A
O269       Zr279   2.452       .  S
O269        C288   1.282       .  A
O270       Zr278   2.443       .  S
O270        C289   1.281       .  A
O271        C288   1.266       .  A
O272       Zr280   2.436       .  S
O272        C287   1.281       .  A
O273       Zr278   2.390       .  S
O273       Zr280   2.391       .  S
O274       Zr279   2.419       .  S
O274       Zr280   2.361       .  S
O274        H309   0.966       .  S
O275       Zr278   2.403       .  S
O275       Zr295   2.400       .  S
O275        H312   0.963       .  S
O276       Zr279   2.401       .  S
O276       Zr295   2.408       .  S
Zr277       O302   2.438       .  S
Zr277       O296   2.485       .  S
Zr277       O304   2.410       .  S
Zr277       O292   2.365       .  S
Zr277       O283   2.405       .  S
Zr277       O284   2.431       .  S
Zr277       O285   2.372       .  S
Zr277       O286   2.372       .  S
Zr278       O297   2.442       .  S
Zr278       O290   2.435       .  S
Zr278       O291   2.414       .  S
Zr278       O284   2.410       .  S
Zr278       O285   2.404       .  S
Zr279       O281   2.434       .  S
Zr279       O303   2.435       .  S
Zr279       O305   2.474       .  S
Zr279       O283   2.394       .  S
Zr279       O286   2.400       .  S
Zr280       O306   2.436       .  S
Zr280       O307   2.436       .  S
Zr280      O2554   2.437       .  S
Zr280       O283   2.409       .  S
Zr280       O284   2.388       .  S
O281        H318   0.990       .  S
O282      Zr2552   2.437   1_455  S
O282        H313   0.990       .  S
O282        H327   0.990       .  S
O284        H310   0.966       .  S
O285       Zr295   2.355       .  S
O286       Zr295   2.375       .  S
O286        H311   0.965       .  S
C287       C4503   1.458       .  S
C288       C2230   1.428       .  S
C289       C2236   1.425       .  S
O290       H2598   0.990       .  S
O291        C293   1.274       .  A
O292        C293   1.261       .  A
C293       C2233   1.387       .  S
O294       Zr295   2.440       .  S
O294        H323   0.990       .  S
Zr295       O298   2.438       .  S
Zr295       O299   2.441       .  S
Zr295       O300   2.461       .  S
O296        C301   1.292       .  A
O297        H314   0.990       .  S
O297        H329   0.990       .  S
O298        H315   0.990       .  S
O299        H319   0.990       .  S
O299        H328   0.990       .  S
O300        C301   1.287       .  A
C301       C2225   1.478       .  S
O302        H321   0.990       .  S
O302        H325   0.990       .  S
O303        H317   0.990       .  S
O303        H324   0.990       .  S
O304        C308   1.280       .  A
O305        C308   1.292       .  A
O306        H316   0.990       .  S
O307        H320   0.990       .  S
C308       C2228   1.447       .  S
H326       O2562   0.990   1_455  S
Zr331       O332   2.444       .  S
Zr331       O333   2.465       .  S
Zr331       O334   2.417       .  S
Zr331       O337   2.385       .  S
Zr331       O339   2.370       .  S
Zr331       O340   2.389       .  S
Zr331       O341   2.416       .  S
Zr331       O342   2.423       .  S
O332        H388   0.990       .  S
O332        H396   0.991       .  S
O333        C353   1.287       .  A
O334        C355   1.278       .  A
O335       Zr345   2.449       .  S
O335        C354   1.282       .  A
O336       Zr344   2.440       .  S
O336        C355   1.280       .  A
O337        C354   1.267       .  A
O338       Zr346   2.443       .  S
O338        C353   1.283       .  A
O339       Zr344   2.387       .  S
O339       Zr346   2.390       .  S
O340       Zr345   2.412       .  S
O340       Zr346   2.359       .  S
O340        H375   0.966       .  S
O341       Zr344   2.402       .  S
O341       Zr361   2.408       .  S
O341        H378   0.963       .  S
O342       Zr345   2.396       .  S
O342       Zr361   2.414       .  S
Zr343       O368   2.438       .  S
Zr343       O362   2.509       .  S
Zr343       O370   2.436       .  S
Zr343       O358   2.380       .  S
Zr343       O349   2.412       .  S
Zr343       O350   2.444       .  S
Zr343       O351   2.374       .  S
Zr343       O352   2.373       .  S
Zr344       O363   2.443       .  S
Zr344       O356   2.436       .  S
Zr344       O357   2.397       .  S
Zr344       O350   2.413       .  S
Zr344       O351   2.413       .  S
Zr345       O347   2.434       .  S
Zr345       O369   2.436       .  S
Zr345       O371   2.451       .  S
Zr345       O349   2.394       .  S
Zr345       O352   2.407       .  S
Zr346       O372   2.435       .  S
Zr346       O373   2.436       .  S
Zr346       O348   2.438       .  S
Zr346       O349   2.411       .  S
Zr346       O350   2.390       .  S
O347        H384   0.990       .  S
O348        H379   0.990       .  S
O348        H393   0.990       .  S
O350        H376   0.966       .  S
O351       Zr361   2.354       .  S
O352       Zr361   2.380       .  S
O352        H377   0.965       .  S
C353       C2223   1.460       .  S
C354       C2221   1.426       .  S
C355       C2247   1.424       .  S
O356        H392   0.990       .  S
O357        C359   1.270       .  A
O358        C359   1.263       .  A
C359       C2217   1.383       .  S
O360       Zr361   2.439       .  S
O360        H389   0.990       .  S
Zr361       O364   2.438       .  S
Zr361       O365   2.441       .  S
Zr361       O366   2.474       .  S
O362        C367   1.297       .  A
O363        H380   0.990       .  S
O363        H395   0.990       .  S
O364        H381   0.990       .  S
O365        H385   0.990       .  S
O365        H394   0.989       .  S
O366        C367   1.289       .  A
C367       C2219   1.497       .  S
O368        H387   0.990       .  S
O368        H391   0.990       .  S
O369        H383   0.990       .  S
O369        H390   0.990       .  S
O370        C374   1.285       .  A
O371        C374   1.287       .  A
O372        H382   0.990       .  S
O373        H386   0.990       .  S
C374       C2227   1.449       .  S
Zr397       O398   2.440       .  S
Zr397       O399   2.455       .  S
Zr397       O400   2.380       .  S
Zr397       O403   2.424       .  S
Zr397       O405   2.375       .  S
Zr397       O406   2.386       .  S
Zr397       O407   2.429       .  S
Zr397       O408   2.401       .  S
O398        H454   0.991       .  S
O398        H462   0.991       .  S
O399        C419   1.285       .  A
O400        C421   1.268       .  A
O401       Zr411   2.495       .  S
O401        C420   1.287       .  A
O402       Zr410   2.414       .  S
O402        C421   1.278       .  A
O403        C420   1.274       .  A
O404       Zr412   2.487       .  S
O404        C419   1.292       .  A
O405       Zr410   2.398       .  S
O405       Zr412   2.365       .  S
O406       Zr411   2.436       .  S
O406       Zr412   2.382       .  S
O406        H441   0.966       .  S
O407       Zr410   2.406       .  S
O407       Zr427   2.359       .  S
O407        H444   0.963       .  S
O408       Zr411   2.396       .  S
O408       Zr427   2.353       .  S
Zr409       O434   2.439       .  S
Zr409       O428   2.455       .  S
Zr409       O436   2.389       .  S
Zr409       O424   2.401       .  S
Zr409       O415   2.412       .  S
Zr409       O416   2.410       .  S
Zr409       O417   2.366       .  S
Zr409       O418   2.396       .  S
Zr410       O429   2.440       .  S
Zr410       O422   2.434       .  S
Zr410       O423   2.453       .  S
Zr410       O416   2.390       .  S
Zr410       O417   2.365       .  S
Zr411       O413   2.437       .  S
Zr411       O435   2.438       .  S
Zr411       O437   2.507       .  S
Zr411       O415   2.404       .  S
Zr411       O418   2.393       .  S
Zr412       O438   2.435       .  S
Zr412       O439   2.434       .  S
Zr412       O414   2.436       .  S
Zr412       O415   2.429       .  S
Zr412       O416   2.421       .  S
O413        H450   0.990       .  S
O414        H445   0.990       .  S
O414        H459   0.990       .  S
O416        H442   0.966       .  S
O417       Zr427   2.374       .  S
O418       Zr427   2.386       .  S
O418        H443   0.966       .  S
C419       C2226   1.478       .  S
C420        C816   1.483       .  S
C421       C2218   1.388       .  S
O422        H458   0.990       .  S
O423        C425   1.286       .  A
O424        C425   1.280       .  A
C425        C821   1.466       .  S
O426       Zr427   2.439       .  S
O426        H455   0.990       .  S
Zr427       O430   2.437       .  S
Zr427       O431   2.439       .  S
Zr427       O432   2.383       .  S
O428        C433   1.280       .  A
O429        H446   0.990       .  S
O429        H461   0.990       .  S
O430        H447   0.990       .  S
O431        H451   0.990       .  S
O431        H460   0.990       .  S
O432        C433   1.262       .  A
C433       C2214   1.425       .  S
O434        H453   0.990       .  S
O434        H457   0.990       .  S
O435        H449   0.990       .  S
O435        H456   0.990       .  S
O436        C440   1.275       .  A
O437        C440   1.298       .  A
O438        H448   0.990       .  S
O439        H452   0.990       .  S
C440       C2215   1.452       .  S
Zr463       O464   2.440       .  S
Zr463       O465   2.445       .  S
Zr463       O466   2.412       .  S
Zr463       O469   2.398       .  S
Zr463       O471   2.391       .  S
Zr463       O472   2.374       .  S
Zr463       O473   2.408       .  S
Zr463       O474   2.381       .  S
O464        H520   0.984       .  S
O464        H528   0.989       .  S
O465        C485   1.286       .  A
O466        C487   1.275       .  A
O467       Zr477   2.390       .  S
O467        C486   1.274       .  A
O468       Zr476   2.448       .  S
O468        C487   1.281       .  A
O469        C486   1.276       .  A
O470       Zr478   2.472       .  S
O470        C485   1.290       .  A
O471       Zr476   2.418       .  S
O471       Zr478   2.377       .  S
O472       Zr477   2.360       .  S
O472       Zr478   2.364       .  S
O472        H507   0.964       .  S
O473       Zr476   2.438       .  S
O473       Zr493   2.346       .  S
O473        H510   0.963       .  S
O474       Zr477   2.376       .  S
O474       Zr493   2.372       .  S
Zr475      O2772   2.444   1_455  S
Zr475       O494   2.455       .  S
Zr475       O490   2.384       .  S
Zr475      O2774   2.383   1_455  S
Zr475       O481   2.405       .  S
Zr475       O482   2.405       .  S
Zr475       O483   2.372       .  S
Zr475       O484   2.379       .  S
Zr476       O495   2.437       .  S
Zr476       O488   2.434       .  S
Zr476       O489   2.511       .  S
Zr476       O482   2.393       .  S
Zr476       O483   2.384       .  S
Zr477       O479   2.436       .  S
Zr477       O501   2.435       .  S
Zr477      O2775   2.392   1_455  S
Zr477       O481   2.386       .  S
Zr477       O484   2.372       .  S
Zr478       O504   2.435       .  S
Zr478       O505   2.435       .  S
Zr478       O480   2.436       .  S
Zr478       O481   2.411       .  S
Zr478       O482   2.417       .  S
O479        H516   0.990       .  S
O480        H511   0.990       .  S
O480        H525   0.990       .  S
O482        H508   0.966       .  S
O483       Zr493   2.390       .  S
O484       Zr493   2.354       .  S
O484        H509   0.964       .  S
C485       C2211   1.455       .  S
C486       C2210   1.396       .  S
C487        C883   1.456       .  S
O488        H524   0.990       .  S
O489        C491   1.299       .  A
O490        C491   1.274       .  A
C491       C2232   1.453       .  S
O492       Zr493   2.440       .  S
O492        H521   0.990       .  S
Zr493       O496   2.437       .  S
Zr493       O497   2.437       .  S
Zr493       O498   2.381       .  S
O494        C499   1.284       .  A
O495        H512   0.990       .  S
O495        H527   0.990       .  S
O496        H513   0.990       .  S
O497        H517   0.990       .  S
O497        H526   0.990       .  S
O498        C499   1.265       .  A
C499       C2239   1.419       .  S
O500      Zr2747   2.444       .  S
O500        H519   0.990       .  S
O500        H523   0.990       .  S
O501        H522   0.990       .  S
O501       H2787   0.990       .  S
O502      Zr2747   2.383       .  S
O502        C506   1.279       .  A
O503      Zr2749   2.392       .  S
O503        C506   1.275       .  A
O504        H514   0.990       .  S
O505        H518   0.990       .  S
C506        C902   1.423       .  S
H515       O2773   0.990       .  S
Zr529       O530   2.440       .  S
Zr529       O531   2.449       .  S
Zr529       O532   2.398       .  S
Zr529       O535   2.429       .  S
Zr529       O537   2.387       .  S
Zr529       O538   2.396       .  S
Zr529       O539   2.436       .  S
Zr529       O540   2.405       .  S
O530        H586   0.990       .  S
O530        H594   0.991       .  S
O531        C551   1.285       .  A
O532        C553   1.264       .  A
O533       Zr543   2.487       .  S
O533        C552   1.286       .  A
O534       Zr542   2.385       .  S
O534        C553   1.263       .  A
O535        C552   1.276       .  A
O536       Zr544   2.480       .  S
O536        C551   1.291   1_556  A
O537       Zr542   2.400       .  S
O537       Zr544   2.351   1_554  S
O538       Zr543   2.438       .  S
O538       Zr544   2.384   1_554  S
O538        H573   0.966       .  S
O539       Zr542   2.420       .  S
O539       Zr559   2.376       .  S
O539        H576   0.964       .  S
O540       Zr543   2.405       .  S
O540       Zr559   2.356       .  S
Zr541       O566   2.442       .  S
Zr541       O560   2.449       .  S
Zr541       O568   2.378       .  S
Zr541       O556   2.373       .  S
Zr541       O547   2.402       .  S
Zr541       O548   2.404       .  S
Zr541       O549   2.368       .  S
Zr541       O550   2.389       .  S
Zr542       O561   2.443       .  S
Zr542       O554   2.434       .  S
Zr542       O555   2.430       .  S
Zr542       O548   2.396       .  S
Zr542       O549   2.361       .  S
Zr543       O545   2.436       .  S
Zr543       O567   2.437   1_554  S
Zr543       O569   2.523       .  S
Zr543       O547   2.398       .  S
Zr543       O550   2.390       .  S
Zr544       O570   2.435       .  S
Zr544       O571   2.434       .  S
Zr544       O546   2.436       .  S
Zr544       O547   2.421   1_556  S
Zr544       O548   2.419   1_556  S
O545        H582   0.990       .  S
O546        H577   0.990       .  S
O546        H591   0.990       .  S
O548        H574   0.966       .  S
O549       Zr559   2.373       .  S
O550       Zr559   2.393       .  S
O550        H575   0.966       .  S
C551       C2242   1.471   1_554  S
C552        C618   1.481       .  S
C553       C2250   1.404       .  S
O554        H590   0.990       .  S
O555        C557   1.280       .  A
O556        C557   1.275       .  A
C557        C623   1.449       .  S
O558       Zr559   2.437       .  S
O558        H587   0.990       .  S
Zr559       O562   2.438       .  S
Zr559       O563   2.439       .  S
Zr559       O564   2.392       .  S
O560        C565   1.280       .  A
O561        H578   0.990       .  S
O561        H593   0.988       .  S
O562        H579   0.990       .  S
O563        H583   0.990       .  S
O563        H592   0.990       .  S
O564        C565   1.264       .  A
C565       C2206   1.423       .  S
O566        H585   0.990   1_554  S
O566        H589   0.990       .  S
O567        H581   0.990       .  S
O567        H588   0.990       .  S
O568        C572   1.273       .  A
O569        C572   1.301       .  A
O570        H580   0.990       .  S
O571        H584   0.990       .  S
C572       C2208   1.457   1_554  S
Zr595      O2868   2.443       .  S
Zr595       O598   2.411       .  S
Zr595      O2869   2.446       .  S
Zr595      O2873   2.422       .  S
Zr595       O603   2.377       .  S
Zr595       O604   2.404       .  S
Zr595       O605   2.422       .  S
Zr595       O606   2.408       .  S
O596      Zr2867   2.443   1_455  S
O596        H652   0.990       .  S
O596        H660   0.990       .  S
O597      Zr2867   2.446   1_455  S
O597       C2889   1.284       .  A
O598        C619   1.271       .  A
O599      Zr2881   2.499   1_455  S
O599        C618   1.290       .  A
O600       Zr608   2.379       .  S
O600        C619   1.265       .  A
O601      Zr2867   2.422   1_455  S
O601        C618   1.273       .  A
O602       Zr610   2.514       .  S
O602        C617   1.298       .  A
O603       Zr608   2.398       .  S
O603       Zr610   2.349       .  S
O604       Zr609   2.443       .  S
O604       Zr610   2.373       .  S
O604        H639   0.966       .  S
O605       Zr608   2.405       .  S
O605       Zr625   2.377       .  S
O605        H642   0.965       .  S
O606       Zr609   2.412       .  S
O606       Zr625   2.350       .  S
Zr607       O632   2.442       .  S
Zr607       O626   2.463       .  S
Zr607       O634   2.384       .  S
Zr607       O622   2.379       .  S
Zr607       O613   2.411       .  S
Zr607       O614   2.413       .  S
Zr607       O615   2.370       .  S
Zr607       O616   2.390       .  S
Zr608       O627   2.437       .  S
Zr608       O620   2.434       .  S
Zr608       O621   2.425       .  S
Zr608       O614   2.391       .  S
Zr608       O615   2.367       .  S
Zr609       O611   2.436       .  S
Zr609       O633   2.436       .  S
Zr609       O635   2.562       .  S
Zr609      O2871   2.499       .  S
Zr609       O613   2.395       .  S
Zr609       O616   2.383       .  S
Zr610       O636   2.435       .  S
Zr610       O637   2.434       .  S
Zr610       O612   2.436       .  S
Zr610       O613   2.436       .  S
Zr610       O614   2.427       .  S
O611       H2920   0.990       .  S
O612        H643   0.990       .  S
O612        H657   0.990       .  S
O614        H640   0.966       .  S
O615       Zr625   2.379       .  S
O616       Zr625   2.398       .  S
O616        H641   0.966       .  S
C617       O2869   1.284       .  A
C617       C4524   1.486       .  S
C619       C2244   1.405       .  S
O620        H656   0.990       .  S
O621        C623   1.279       .  A
O622        C623   1.276       .  A
O624       Zr625   2.437   1_556  S
O624        H653   0.990   1_556  S
Zr625       O628   2.437   1_554  S
Zr625       O629   2.438       .  S
Zr625       O630   2.382       .  S
O626        C631   1.282       .  A
O627        H644   0.990       .  S
O627        H659   0.990       .  S
O628        H645   0.990       .  S
O629        H649   0.990       .  S
O629        H658   0.990       .  S
O630        C631   1.262       .  A
C631       C2202   1.432       .  S
O632        H651   0.990       .  S
O632        H655   0.990       .  S
O633       H2919   0.990       .  S
O633       H2926   0.990       .  S
O634        C638   1.273       .  A
O635        C638   1.309       .  A
O636        H646   0.990       .  S
O637        H650   0.990       .  S
C638       C2203   1.479       .  S
H647       O2905   0.990   1_655  S
H648       O2883   0.990       .  S
H654       O2905   0.990       .  S
Zr661       O662   2.430       .  S
Zr661       O663   2.444       .  S
Zr661       O664   2.424       .  S
Zr661       O667   2.415       .  S
Zr661       O669   2.393       .  S
Zr661       O670   2.371       .  S
Zr661       O671   2.411       .  S
Zr661       O672   2.383       .  S
O662        H718   0.985       .  S
O662        H726   0.989       .  S
O663        C683   1.285       .  A
O664        C685   1.276       .  A
O665       Zr675   2.382       .  S
O665        C684   1.274       .  A
O666       Zr674   2.438       .  S
O666        C685   1.279       .  A
O667        C684   1.281       .  A
O668       Zr676   2.494       .  S
O668        C683   1.294       .  A
O669       Zr674   2.430       .  S
O669       Zr676   2.374       .  S
O670       Zr675   2.375       .  S
O670       Zr676   2.359       .  S
O670        H705   0.965       .  S
O671       Zr674   2.449       .  S
O671       Zr691   2.342       .  S
O671        H708   0.963       .  S
O672       Zr675   2.380       .  S
O672       Zr691   2.373       .  S
Zr673       O698   2.445       .  S
Zr673       O692   2.466       .  S
Zr673       O700   2.364       .  S
Zr673       O688   2.386       .  S
Zr673       O679   2.408       .  S
Zr673       O680   2.404       .  S
Zr673       O681   2.365       .  S
Zr673       O682   2.376       .  S
Zr674       O693   2.438       .  S
Zr674       O686   2.434       .  S
Zr674       O687   2.529       .  S
Zr674       O680   2.387       .  S
Zr674       O681   2.380       .  S
Zr675       O677   2.437       .  S
Zr675       O699   2.436       .  S
Zr675       O701   2.405       .  S
Zr675       O679   2.385       .  S
Zr675       O682   2.370       .  S
Zr676       O702   2.435       .  S
Zr676       O703   2.434       .  S
Zr676       O678   2.435       .  S
Zr676       O679   2.415       .  S
Zr676       O680   2.430       .  S
O677        H714   0.990       .  S
O678        H709   0.990       .  S
O678        H723   0.990       .  S
O680        H706   0.966       .  S
O681       Zr691   2.397       .  S
O682       Zr691   2.356       .  S
O682        H707   0.965       .  S
C683       C2200   1.471       .  S
C684       C2198   1.403       .  S
C685        C751   1.456       .  S
O686        H722   0.990       .  S
O687        C689   1.302       .  A
O688        C689   1.273       .  A
C689       C2254   1.465       .  S
O690       Zr691   2.441       .  S
O690        H719   0.990       .  S
Zr691       O694   2.438       .  S
Zr691       O695   2.437       .  S
Zr691       O696   2.374       .  S
O692        C697   1.287       .  A
O693        H710   0.990       .  S
O693        H725   0.990       .  S
O694        H711   0.990       .  S
O695        H715   0.990       .  S
O695        H724   0.990       .  S
O696        C697   1.266       .  A
C697       C2222   1.422       .  S
O698        H717   0.990       .  S
O698        H721   0.990       .  S
O699        H713   0.990       .  S
O699        H720   0.990       .  S
O700        C704   1.275       .  A
O701        C704   1.277       .  A
O702        H712   0.990       .  S
O703        H716   0.990       .  S
C704        C770   1.425       .  S
Zr727      O3000   2.433   1_455  S
Zr727       O729   2.433   1_455  S
Zr727       O733   2.391       .  S
Zr727      O3002   2.406   1_455  S
Zr727       O735   2.387       .  S
Zr727       O736   2.371       .  S
Zr727       O737   2.403       .  S
Zr727       O738   2.382       .  S
O728      Zr2999   2.433       .  S
O728        H784   0.986       .  S
O728        H792   0.989       .  S
O729        C749   1.282   1_655  A
O730      Zr2999   2.406       .  S
O730        C751   1.273       .  A
O731       Zr741   2.388       .  S
O731        C750   1.275       .  A
O732      Zr3012   2.446       .  S
O732        C751   1.281       .  A
O733        C750   1.275       .  A
O734       Zr742   2.467       .  S
O734        C749   1.289       .  A
O735       Zr740   2.420       .  S
O735       Zr742   2.379       .  S
O736       Zr741   2.365       .  S
O736       Zr742   2.363       .  S
O736        H771   0.965       .  S
O737       Zr740   2.440       .  S
O737       Zr757   2.348       .  S
O737        H774   0.963       .  S
O738       Zr741   2.378       .  S
O738       Zr757   2.374       .  S
Zr739       O764   2.446       .  S
Zr739       O758   2.457       .  S
Zr739       O766   2.375       .  S
Zr739       O754   2.388       .  S
Zr739       O745   2.402       .  S
Zr739       O746   2.401       .  S
Zr739       O747   2.371       .  S
Zr739       O748   2.381       .  S
Zr740       O759   2.437       .  S
Zr740       O752   2.434       .  S
Zr740       O753   2.510       .  S
Zr740      O3004   2.446   1_455  S
Zr740       O746   2.394       .  S
Zr740       O747   2.385       .  S
Zr741       O743   2.437       .  S
Zr741       O765   2.436       .  S
Zr741       O767   2.396       .  S
Zr741       O745   2.389       .  S
Zr741       O748   2.369       .  S
Zr742       O768   2.435       .  S
Zr742       O769   2.434       .  S
Zr742       O744   2.435       .  S
Zr742       O745   2.405       .  S
Zr742       O746   2.416       .  S
O743        H780   0.990       .  S
O744        H775   0.990       .  S
O744        H789   0.990       .  S
O746        H772   0.966       .  S
O747       Zr757   2.394       .  S
O748       Zr757   2.359       .  S
O748        H773   0.964       .  S
C749       C4467   1.451   1_455  S
C750       C2193   1.394       .  S
O752        H788   0.990   1_455  S
O753        C755   1.298       .  A
O754        C755   1.274       .  A
C755       C2224   1.455       .  S
O756       Zr757   2.441       .  S
O756        H785   0.990       .  S
Zr757       O760   2.437       .  S
Zr757       O761   2.437       .  S
Zr757       O762   2.379       .  S
O758        C763   1.284       .  A
O759       H3048   0.990   1_455  S
O759       H3063   0.990       .  S
O760        H777   0.990       .  S
O761        H781   0.990       .  S
O761        H790   0.990       .  S
O762        C763   1.264       .  A
C763       C2255   1.418       .  S
O764        H783   0.990       .  S
O764        H787   0.990       .  S
O765        H779   0.990       .  S
O765        H786   0.990       .  S
O766        C770   1.278       .  A
O767        C770   1.275       .  A
O768        H778   0.990       .  S
O769        H782   0.990       .  S
H776       O3031   0.990       .  S
H791       O3031   0.990       .  S
Zr793       O794   2.450       .  S
Zr793       O795   2.453       .  S
Zr793       O796   2.384       .  S
Zr793       O799   2.419       .  S
Zr793       O801   2.376       .  S
Zr793       O802   2.393       .  S
Zr793       O803   2.401       .  S
Zr793       O804   2.395       .  S
O794        H850   0.989       .  S
O794        H858   0.990       .  S
O795        C815   1.286       .  A
O796        C817   1.272       .  A
O797       Zr807   2.504       .  S
O797        C816   1.291       .  A
O798       Zr806   2.401       .  S
O798        C817   1.277       .  A
O799        C816   1.275       .  A
O800       Zr808   2.531       .  S
O800        C815   1.302       .  A
O801       Zr806   2.391       .  S
O801       Zr808   2.354       .  S
O802       Zr807   2.437       .  S
O802       Zr808   2.371       .  S
O802        H837   0.966       .  S
O803       Zr806   2.404       .  S
O803       Zr823   2.363       .  S
O803        H840   0.964       .  S
O804       Zr807   2.394       .  S
O804       Zr823   2.353       .  S
Zr805      O3102   2.441       .  S
Zr805       O832   2.391       .  S
Zr805      O3096   2.481       .  S
Zr805      O3092   2.402       .  S
Zr805       O811   2.422       .  S
Zr805       O812   2.421       .  S
Zr805       O813   2.358       .  S
Zr805       O814   2.387       .  S
Zr806       O825   2.440       .  S
Zr806      O3090   2.434       .  S
Zr806      O3091   2.450       .  S
Zr806       O812   2.385       .  S
Zr806       O813   2.371       .  S
Zr807       O809   2.436       .  S
Zr807       O831   2.437       .  S
Zr807       O833   2.543       .  S
Zr807       O811   2.398       .  S
Zr807       O814   2.387       .  S
Zr808       O834   2.435       .  S
Zr808       O835   2.435       .  S
Zr808       O810   2.436       .  S
Zr808       O811   2.445       .  S
Zr808       O812   2.434       .  S
O809        H846   0.990       .  S
O810        H841   0.990       .  S
O810        H855   0.990       .  S
O812       H3110   0.966       .  S
O813       Zr823   2.378       .  S
O814       Zr823   2.400       .  S
O814        H839   0.965       .  S
C815       C2220   1.497       .  S
C817       C2234   1.390       .  S
O818      Zr3078   2.434       .  S
O818       H3126   0.990       .  S
O819      Zr3078   2.450   1_455  S
O819        C821   1.284       .  A
O820      Zr3077   2.402   1_455  S
O820        C821   1.280       .  A
O822       Zr823   2.440       .  S
O822        H851   0.990       .  S
Zr823       O826   2.436       .  S
Zr823       O827   2.445       .  S
Zr823       O828   2.373       .  S
O824      Zr3077   2.481   1_455  S
O824        C829   1.287       .  A
O825        H857   0.990       .  S
O825       H3114   0.990       .  S
O826        H843   0.990       .  S
O827        H847   0.990       .  S
O827        H856   0.988       .  S
O828       C3101   1.261       .  A
C829       O3100   1.261   1_455  A
C829       C2190   1.433       .  S
O830      Zr3077   2.441   1_455  S
O830        H849   0.990       .  S
O830        H853   0.990       .  S
O831        H845   0.990       .  S
O831        H852   0.990       .  S
O832        C836   1.275       .  A
O833        C836   1.305       .  A
O834        H844   0.990       .  S
O835       H3120   0.990       .  S
C836       C4463   1.473       .  S
H838       O3084   0.966   1_455  S
H842       O3097   0.990       .  S
H848       O3107   0.990       .  S
H854       O3090   0.990       .  S
Zr859       O860   2.438       .  S
Zr859       O861   2.460       .  S
Zr859       O862   2.422       .  S
Zr859       O865   2.429       .  S
Zr859       O867   2.394       .  S
Zr859       O868   2.379       .  S
Zr859       O869   2.418       .  S
Zr859       O870   2.373       .  S
O860        H916   0.984       .  S
O860        H924   0.990       .  S
O861        C881   1.288       .  A
O862        C883   1.276       .  A
O863       Zr873   2.383       .  S
O863        C882   1.272       .  A
O864       Zr872   2.444       .  S
O864        C883   1.280       .  A
O865        C882   1.283       .  A
O866       Zr874   2.493       .  S
O866        C881   1.294       .  A
O867       Zr872   2.428       .  S
O867       Zr874   2.376       .  S
O868       Zr873   2.378       .  S
O868       Zr874   2.371       .  S
O868        H903   0.965       .  S
O869       Zr872   2.449       .  S
O869       Zr889   2.345       .  S
O869        H906   0.963       .  S
O870       Zr873   2.376       .  S
O870       Zr889   2.359       .  S
Zr871       O896   2.441       .  S
Zr871       O890   2.470       .  S
Zr871       O898   2.370       .  S
Zr871       O886   2.375       .  S
Zr871       O877   2.414       .  S
Zr871       O878   2.408       .  S
Zr871       O879   2.369       .  S
Zr871       O880   2.379       .  S
Zr872       O891   2.439       .  S
Zr872       O884   2.434       .  S
Zr872       O885   2.536       .  S
Zr872       O878   2.389       .  S
Zr872       O879   2.379       .  S
Zr873       O875   2.437       .  S
Zr873       O897   2.434       .  S
Zr873       O899   2.401       .  S
Zr873       O877   2.382       .  S
Zr873       O880   2.376       .  S
Zr874       O900   2.435       .  S
Zr874       O901   2.435       .  S
Zr874       O876   2.436       .  S
Zr874       O877   2.421       .  S
Zr874       O878   2.433       .  S
O875        H912   0.990       .  S
O876        H907   0.990       .  S
O876        H921   0.990       .  S
O878        H904   0.966       .  S
O879       Zr889   2.394       .  S
O880       Zr889   2.359       .  S
O880        H905   0.964       .  S
C881       C2188   1.477       .  S
C882       C2185   1.402       .  S
O884        H920   0.990       .  S
O885        C887   1.303       .  A
O886        C887   1.272       .  A
C887       C2238   1.464       .  S
O888       Zr889   2.441       .  S
O888        H917   0.990       .  S
Zr889       O892   2.437       .  S
Zr889       O893   2.437       .  S
Zr889       O894   2.375       .  S
O890        C895   1.286       .  A
O891        H908   0.990       .  S
O891        H923   0.990       .  S
O892        H909   0.990       .  S
O893        H913   0.990       .  S
O893        H922   0.990       .  S
O894        C895   1.263       .  A
C895       C2229   1.424       .  S
O896        H915   0.991       .  S
O896        H919   0.990       .  S
O897        H911   0.990       .  S
O897        H918   0.990       .  S
O898        C902   1.275       .  A
O899        C902   1.275       .  A
O900        H910   0.990       .  S
O901        H914   0.990       .  S
Zr925       O926   2.442       .  S
Zr925       O931   2.386       .  S
Zr925      O3199   2.480   1_455  S
Zr925      O3200   2.411   1_455  S
Zr925       O934   2.389       .  S
Zr925       O935   2.426       .  S
Zr925       O936   2.414       .  S
Zr925      O3205   2.378   1_455  S
O926        H982   0.990   1_455  S
O926        H990   0.990       .  S
O927      Zr3197   2.480       .  S
O927        C947   1.291       .  A
O928      Zr3197   2.411       .  S
O928        C949   1.277       .  A
O929       Zr939   2.388       .  S
O929        C948   1.262       .  A
O930       Zr938   2.459       .  S
O930        C949   1.286       .  A
O931        C948   1.264       .  A
O932       Zr940   2.463       .  S
O932        C947   1.287       .  A
O933       Zr938   2.401       .  S
O933       Zr940   2.382       .  S
O933      Zr3197   2.378       .  S
O934       Zr939   2.416       .  S
O934      Zr3212   2.366   1_455  S
O934        H969   0.965       .  S
O935       Zr955   2.412       .  S
O935      Zr3210   2.402   1_455  S
O935        H972   0.965       .  S
O936       Zr939   2.410       .  S
O936       Zr955   2.387       .  S
Zr937      O3234   2.441       .  S
Zr937       O956   2.459       .  S
Zr937       O964   2.399       .  S
Zr937      O3224   2.368       .  S
Zr937       O943   2.393       .  S
Zr937       O945   2.373       .  S
Zr937       O946   2.366       .  S
Zr937      O3216   2.415   1_455  S
Zr938       O957   2.441       .  S
Zr938       O950   2.435       .  S
Zr938       O951   2.459       .  S
Zr938       O944   2.396       .  S
Zr938      O3207   2.402       .  S
Zr938      O3217   2.391       .  S
Zr939       O941   2.434       .  S
Zr939       O963   2.437       .  S
Zr939       O965   2.402       .  S
Zr939       O943   2.392       .  S
Zr939       O946   2.387       .  S
Zr940       O966   2.435       .  S
Zr940       O967   2.435       .  S
Zr940       O942   2.437       .  S
Zr940       O944   2.417       .  S
Zr940      O3206   2.366       .  S
Zr940      O3215   2.411       .  S
O941        H978   0.990       .  S
O942        H973   0.990       .  S
O942        H987   0.990       .  S
O943      Zr3212   2.411   1_455  S
O944      Zr3209   2.415       .  S
O944        H970   0.966       .  S
O945       Zr955   2.359       .  S
O945      Zr3210   2.391   1_455  S
O946       Zr955   2.387       .  S
O946        H971   0.966       .  S
C947       C2199   1.472       .  S
C948       C2194   1.398       .  S
C949       C2183   1.433       .  S
O950        H986   0.990       .  S
O951        C953   1.288       .  A
O952      Zr3209   2.368       .  S
O952        C953   1.270       .  A
C953       C2265   1.419       .  S
O954       Zr955   2.439       .  S
O954        H983   0.990       .  S
Zr955       O958   2.437       .  S
Zr955       O959   2.438       .  S
Zr955       O960   2.443       .  S
O956        C961   1.288       .  A
O957        H974   0.990       .  S
O957       H3261   0.990       .  S
O958        H975   0.990       .  S
O959        H979   0.990       .  S
O959        H988   0.990       .  S
O960        C961   1.283       .  A
C961       C2259   1.456       .  S
O962      Zr3209   2.441       .  S
O962        H981   0.991       .  S
O962        H985   0.990       .  S
O963        H977   0.990       .  S
O963        H984   0.990       .  S
O964        C968   1.276       .  A
O965        C968   1.275       .  A
O966        H976   0.990       .  S
O967        H980   0.990       .  S
C968       C2181   1.410       .  S
H989       O3229   0.990       .  S
Zr991       O992   2.442       .  S
Zr991       O993   2.481       .  S
Zr991       O994   2.408       .  S
Zr991       O997   2.381       .  S
Zr991       O999   2.376       .  S
Zr991      O1000   2.391       .  S
Zr991      O1001   2.425       .  S
Zr991      O1002   2.417       .  S
O992       H1048   0.990       .  S
O992       H1056   0.990       .  S
O993       C1013   1.291       .  A
O994       C1015   1.277       .  A
O995      Zr1005   2.399       .  S
O995       C1014   1.264       .  A
O996      Zr1004   2.451       .  S
O996       C1015   1.284       .  A
O997       C1014   1.263       .  A
O998      Zr1006   2.473       .  S
O998       C1013   1.289       .  A
O999      Zr1004   2.402       .  S
O999      Zr1006   2.376       .  S
O1000     Zr1005   2.419       .  S
O1000     Zr1006   2.367       .  S
O1000      H1035   0.965       .  S
O1001     Zr1004   2.405       .  S
O1001     Zr1021   2.416       .  S
O1001      H1038   0.965       .  S
O1002     Zr1005   2.402       .  S
O1002     Zr1021   2.391       .  S
Zr1003     O1028   2.443   1_556  S
Zr1003     O1022   2.490       .  S
Zr1003     O1030   2.426   1_556  S
Zr1003     O1018   2.389       .  S
Zr1003     O1009   2.399       .  S
Zr1003     O1010   2.437       .  S
Zr1003     O1011   2.376       .  S
Zr1003     O1012   2.376       .  S
Zr1004     O1023   2.442       .  S
Zr1004     O1016   2.436       .  S
Zr1004     O1017   2.451       .  S
Zr1004     O1010   2.400       .  S
Zr1004     O1011   2.399       .  S
Zr1005     O1007   2.435       .  S
Zr1005     O1029   2.440       .  S
Zr1005     O1031   2.406   1_556  S
Zr1005     O1009   2.387       .  S
Zr1005     O1012   2.397       .  S
Zr1006     O1032   2.435       .  S
Zr1006     O1033   2.436   1_556  S
Zr1006     O1008   2.438       .  S
Zr1006     O1009   2.404       .  S
Zr1006     O1010   2.423       .  S
O1007      H1044   0.990       .  S
O1008      H1039   0.990       .  S
O1008      H1053   0.990       .  S
O1010      H1036   0.966       .  S
O1011     Zr1021   2.360       .  S
O1012     Zr1021   2.397       .  S
O1012      H1037   0.966       .  S
C1013      C2187   1.477       .  S
C1014      C2209   1.400       .  S
C1015      C2179   1.428       .  S
O1016      H1052   0.990       .  S
O1017      C1019   1.282       .  A
O1018      C1019   1.268       .  A
C1019      C2258   1.424       .  S
O1020     Zr1021   2.439       .  S
O1020      H1049   0.990       .  S
Zr1021     O1024   2.437       .  S
Zr1021     O1025   2.438       .  S
Zr1021     O1026   2.442       .  S
O1022      C1027   1.293       .  A
O1023      H1040   0.990       .  S
O1023      H1055   0.990       .  S
O1024      H1041   0.990       .  S
O1025      H1045   0.990   1_455  S
O1025      H1054   0.990   1_455  S
O1026      C1027   1.283       .  A
C1027      C2268   1.471       .  S
O1028      H1047   0.990       .  S
O1028      H1051   0.991       .  S
O1029      H1043   0.990       .  S
O1029      H1050   0.991       .  S
O1030      C1034   1.280       .  A
O1031      C1034   1.275       .  A
O1032      H1042   0.990       .  S
O1033      H1046   0.990       .  S
C1034      C2182   1.413       .  S
Zr1057     O1058   2.440       .  S
Zr1057     O1059   2.454       .  S
Zr1057     O1060   2.420       .  S
Zr1057     O1063   2.371       .  S
Zr1057     O1065   2.372       .  S
Zr1057     O1066   2.378       .  S
Zr1057     O1067   2.402       .  S
Zr1057     O1068   2.408       .  S
O1058      H1114   0.990       .  S
O1058      H1122   0.990       .  S
O1059      C1079   1.287       .  A
O1060      C1081   1.280       .  A
O1061     Zr1071   2.417       .  S
O1061      C1080   1.278       .  A
O1062     Zr1070   2.434       .  S
O1062      C1081   1.280       .  A
O1063      C1080   1.273       .  A
O1064     Zr1072   2.451       .  S
O1064      C1079   1.285       .  A
O1065     Zr1070   2.397       .  S
O1065     Zr1072   2.381       .  S
O1066     Zr1071   2.384       .  S
O1066     Zr1072   2.355       .  S
O1066      H1101   0.965       .  S
O1067     Zr1070   2.401       .  S
O1067     Zr1087   2.402       .  S
O1067      H1104   0.966       .  S
O1068     Zr1071   2.393       .  S
O1068     Zr1087   2.397       .  S
Zr1069     O1094   2.441       .  S
Zr1069     O1088   2.491       .  S
Zr1069     O1096   2.417       .  S
Zr1069     O1084   2.379       .  S
Zr1069     O1075   2.400       .  S
Zr1069     O1076   2.445       .  S
Zr1069     O1077   2.376       .  S
Zr1069     O1078   2.374       .  S
Zr1070     O1089   2.441       .  S
Zr1070     O1082   2.435       .  S
Zr1070     O1083   2.425       .  S
Zr1070     O1076   2.402       .  S
Zr1070     O1077   2.405       .  S
Zr1071     O1073   2.434       .  S
Zr1071     O1095   2.439       .  S
Zr1071     O1097   2.421       .  S
Zr1071     O1075   2.384       .  S
Zr1071     O1078   2.390       .  S
Zr1072     O1098   2.435       .  S
Zr1072     O1099   2.436       .  S
Zr1072     O1074   2.437       .  S
Zr1072     O1075   2.406       .  S
Zr1072     O1076   2.396       .  S
O1073      H1110   0.990       .  S
O1074      H1105   0.990       .  S
O1074      H1119   0.990       .  S
O1076      H1102   0.966       .  S
O1077     Zr1087   2.370       .  S
O1078     Zr1087   2.389       .  S
O1078      H1103   0.966       .  S
C1079      C2212   1.455       .  S
C1080      C2186   1.398       .  S
C1081      C2180   1.430       .  S
O1082      H1118   0.990       .  S
O1083      C1085   1.276       .  A
O1084      C1085   1.262       .  A
C1085      C2177   1.400       .  S
O1086     Zr1087   2.439       .  S
O1086      H1115   0.990       .  S
Zr1087     O1090   2.437       .  S
Zr1087     O1091   2.440       .  S
Zr1087     O1092   2.433       .  S
O1088      C1093   1.293       .  A
O1089      H1106   0.990       .  S
O1089      H1121   0.990       .  S
O1090      H1107   0.990       .  S
O1091      H1111   0.990       .  S
O1091      H1120   0.990       .  S
O1092      C1093   1.281       .  A
C1093      C2175   1.469       .  S
O1094      H1113   0.990       .  S
O1094      H1117   0.990       .  S
O1095      H1109   0.990       .  S
O1095      H1116   0.990       .  S
O1096      C1100   1.279       .  A
O1097      C1100   1.279       .  A
O1098      H1108   0.990       .  S
O1099      H1112   0.990       .  S
C1100      C2174   1.423       .  S
Zr1123     O1124   2.441       .  S
Zr1123     O1125   2.462       .  S
Zr1123     O1126   2.429       .  S
Zr1123     O1129   2.387       .  S
Zr1123     O1131   2.376       .  S
Zr1123     O1132   2.394       .  S
Zr1123     O1133   2.413       .  S
Zr1123     O1134   2.418       .  S
O1124      H1180   0.990       .  S
O1124      H1188   0.990       .  S
O1125      C1145   1.288       .  A
O1126      C1147   1.281       .  A
O1127     Zr1137   2.400       .  S
O1127      C1146   1.267       .  A
O1128     Zr1136   2.443       .  S
O1128      C1147   1.284       .  A
O1129      C1146   1.265       .  A
O1130     Zr1138   2.436       .  S
O1130      C1145   1.282       .  A
O1131     Zr1136   2.399       .  S
O1131     Zr1138   2.384       .  S
O1132     Zr1137   2.417       .  S
O1132     Zr1138   2.364       .  S
O1132      H1167   0.965       .  S
O1133     Zr1136   2.397       .  S
O1133     Zr1153   2.403       .  S
O1133      H1170   0.965       .  S
O1134     Zr1137   2.410       .  S
O1134     Zr1153   2.391       .  S
Zr1135     O1160   2.444       .  S
Zr1135     O1154   2.449       .  S
Zr1135     O1162   2.404       .  S
Zr1135     O1150   2.359       .  S
Zr1135     O1141   2.388       .  S
Zr1135     O1142   2.406       .  S
Zr1135     O1143   2.370       .  S
Zr1135     O1144   2.365       .  S
Zr1136     O1155   2.437       .  S
Zr1136     O1148   2.435       .  S
Zr1136     O1149   2.438       .  S
Zr1136     O1142   2.399       .  S
Zr1136     O1143   2.389       .  S
Zr1137     O1139   2.434       .  S
Zr1137     O1161   2.437       .  S
Zr1137     O1163   2.426       .  S
Zr1137     O1141   2.389       .  S
Zr1137     O1144   2.386       .  S
Zr1138     O1164   2.435       .  S
Zr1138     O1165   2.435       .  S
Zr1138     O1140   2.437       .  S
Zr1138     O1141   2.407       .  S
Zr1138     O1142   2.396       .  S
O1139      H1176   0.990       .  S
O1140      H1185   0.990       .  S
O1140      H3443   0.990       .  S
O1142      H1168   0.966       .  S
O1143     Zr1153   2.363       .  S
O1144     Zr1153   2.383       .  S
O1144      H1169   0.966       .  S
C1145      C2196   1.451       .  S
C1146      C2197   1.408       .  S
C1147      C2184   1.434       .  S
O1148      H1184   0.990       .  S
O1149      C1151   1.284       .  A
O1150      C1151   1.270       .  A
C1151      C2169   1.406       .  S
O1152     Zr1153   2.439       .  S
O1152      H1181   0.990       .  S
Zr1153     O1156   2.437       .  S
Zr1153     O1157   2.441       .  S
Zr1153     O1158   2.438       .  S
O1154      C1159   1.286       .  A
O1155      H1172   0.990       .  S
O1155      H1187   0.990       .  S
O1156      H1173   0.990       .  S
O1157      H1177   0.990       .  S
O1157      H1186   0.989       .  S
O1158      C1159   1.283       .  A
C1159      C2172   1.450       .  S
O1160      H1179   0.990       .  S
O1160      H1183   0.990       .  S
O1161      H1175   0.990       .  S
O1161      H1182   0.990       .  S
O1162      C1166   1.278       .  A
O1163      C1166   1.281       .  A
O1164      H1174   0.990       .  S
O1165      H1178   0.990       .  S
C1166      C2173   1.422       .  S
H1171      O3412   0.990   1_455  S
Zr1189     O1190   2.441       .  S
Zr1189     O1191   2.425       .  S
Zr1189     O1192   2.430       .  S
Zr1189     O1195   2.422       .  S
Zr1189     O1197   2.377       .  S
Zr1189     O1198   2.405       .  S
Zr1189     O1199   2.412       .  S
Zr1189     O1200   2.401       .  S
O1190      H1246   0.990       .  S
O1190      H1254   0.990       .  S
O1191      C1211   1.280       .  A
O1192      C1213   1.276       .  A
O1193     Zr1203   2.473       .  S
O1193      C1212   1.284       .  A
O1194     Zr1202   2.378       .  S
O1194      C1213   1.265       .  A
O1195      C1212   1.274       .  A
O1196     Zr1204   2.499       .  S
O1196      C1211   1.295       .  A
O1197     Zr1202   2.395       .  S
O1197     Zr1204   2.354       .  S
O1198     Zr1203   2.437       .  S
O1198     Zr1204   2.369       .  S
O1198      H1233   0.966       .  S
O1199     Zr1202   2.403       .  S
O1199     Zr1219   2.371       .  S
O1199      H1236   0.965       .  S
O1200     Zr1203   2.410       .  S
O1200     Zr1219   2.353       .  S
Zr1201     O1226   2.442       .  S
Zr1201     O1220   2.462       .  S
Zr1201     O1216   2.373       .  S
Zr1201     O3500   2.389       .  S
Zr1201     O3479   2.407   1_455  S
Zr1201     O3480   2.412   1_455  S
Zr1201     O3481   2.363   1_455  S
Zr1201     O3482   2.381   1_455  S
Zr1202     O3493   2.436       .  S
Zr1202     O3486   2.434       .  S
Zr1202     O3487   2.414       .  S
Zr1202     O1208   2.390       .  S
Zr1202     O1209   2.368       .  S
Zr1203     O1205   2.436       .  S
Zr1203     O1227   2.436       .  S
Zr1203     O1229   2.541       .  S
Zr1203     O1207   2.389       .  S
Zr1203     O1210   2.380       .  S
Zr1204     O1230   2.434       .  S
Zr1204     O1231   2.434       .  S
Zr1204     O1206   2.436       .  S
Zr1204     O1207   2.432       .  S
Zr1204     O1208   2.420       .  S
O1205      H1242   0.990       .  S
O1206      H1237   0.990       .  S
O1206      H1251   0.990       .  S
O1207     Zr3473   2.407       .  S
O1208     Zr3473   2.412       .  S
O1208      H3506   0.966       .  S
O1209     Zr1219   2.374       .  S
O1209     Zr3473   2.363       .  S
O1210     Zr1219   2.403       .  S
O1210     Zr3473   2.381       .  S
O1210      H1235   0.965       .  S
C1211      C2176   1.468       .  S
C1212      C1278   1.468       .  S
C1213      C2170   1.414       .  S
O1214     Zr3474   2.434   1_455  S
O1214      H3522   0.990       .  S
O1215     Zr3474   2.414   1_455  S
O1215      C1217   1.277       .  A
O1216      C1217   1.275       .  A
C1217      C1283   1.439       .  S
O1218     Zr1219   2.440       .  S
O1218      H1247   0.990       .  S
Zr1219     O1222   2.437       .  S
Zr1219     O1223   2.444       .  S
Zr1219     O1224   2.379       .  S
O1220      C1225   1.285       .  A
O1221     Zr3474   2.436       .  S
O1221      H1238   0.990   1_655  S
O1221      H3525   0.990   1_655  S
O1222      H1239   0.990       .  S
O1223      H1243   0.990       .  S
O1223      H1252   0.989       .  S
O1224      C3497   1.264       .  A
C1225      O3496   1.264       .  A
C1225      C2165   1.424       .  S
O1226      H1245   0.990       .  S
O1226      H1249   0.990       .  S
O1227      H1241   0.990       .  S
O1227      H1248   0.990       .  S
O1228     Zr3473   2.389       .  S
O1228      C1232   1.274       .  A
O1229      C1232   1.304       .  A
O1230      H1240   0.990       .  S
O1231      H3516   0.990       .  S
C1232      C4439   1.473       .  S
H1234      O3480   0.966   1_455  S
H1244      O3503   0.990   1_455  S
H1250      O3486   0.990       .  S
H1253      O3493   0.990       .  S
Zr1255     O1256   2.441       .  S
Zr1255     O1257   2.435       .  S
Zr1255     O1258   2.410       .  S
Zr1255     O1261   2.416       .  S
Zr1255     O1263   2.378       .  S
Zr1255     O1264   2.398       .  S
Zr1255     O1265   2.425       .  S
Zr1255     O1266   2.410       .  S
O1256      H1312   0.991       .  S
O1256      H1320   0.991       .  S
O1257      C1277   1.282       .  A
O1258      C1279   1.271       .  A
O1259     Zr1269   2.472       .  S
O1259      C1278   1.284       .  A
O1260     Zr1268   2.398       .  S
O1260      C1279   1.269       .  A
O1261      C1278   1.272       .  A
O1262     Zr1270   2.453       .  S
O1262      C1277   1.286       .  A
O1263     Zr1268   2.389       .  S
O1263     Zr1270   2.365       .  S
O1264     Zr1269   2.430       .  S
O1264     Zr1270   2.378       .  S
O1264      H1299   0.966       .  S
O1265     Zr1268   2.406       .  S
O1265     Zr1285   2.367       .  S
O1265      H1302   0.963       .  S
O1266     Zr1269   2.407       .  S
O1266     Zr1285   2.359       .  S
Zr1267     O1292   2.441       .  S
Zr1267     O1286   2.443       .  S
Zr1267     O1294   2.392       .  S
Zr1267     O1282   2.375       .  S
Zr1267     O1273   2.398       .  S
Zr1267     O1274   2.404       .  S
Zr1267     O1275   2.370       .  S
Zr1267     O1276   2.388       .  S
Zr1268     O1287   2.441       .  S
Zr1268     O1280   2.434       .  S
Zr1268     O1281   2.414       .  S
Zr1268     O1274   2.397       .  S
Zr1268     O1275   2.366       .  S
Zr1269     O1271   2.436       .  S
Zr1269     O1293   2.437       .  S
Zr1269     O1295   2.507       .  S
Zr1269     O1273   2.397       .  S
Zr1269     O1276   2.390       .  S
Zr1270     O1296   2.434       .  S
Zr1270     O1297   2.434       .  S
Zr1270     O1272   2.436       .  S
Zr1270     O1273   2.414       .  S
Zr1270     O1274   2.404       .  S
O1271      H1308   0.990       .  S
O1272      H1303   0.990       .  S
O1272      H1317   0.990       .  S
O1274      H1300   0.966       .  S
O1275     Zr1285   2.371       .  S
O1276     Zr1285   2.386       .  S
O1276      H1301   0.966       .  S
C1277      C2171   1.450       .  S
C1279      C2178   1.407       .  S
O1280      H1316   0.989       .  S
O1281      C1283   1.278       .  A
O1282      C1283   1.276       .  A
O1284     Zr1285   2.439       .  S
O1284      H1313   0.990       .  S
Zr1285     O1288   2.438       .  S
Zr1285     O1289   2.438       .  S
Zr1285     O1290   2.394       .  S
O1286      C1291   1.280       .  A
O1287      H1304   0.990       .  S
O1287      H1319   0.989       .  S
O1288      H1305   0.990       .  S
O1289      H1309   0.990       .  S
O1289      H1318   0.990       .  S
O1290      C1291   1.266       .  A
C1291      C2161   1.418       .  S
O1292      H1311   0.990       .  S
O1292      H1315   0.990       .  S
O1293      H1307   0.990       .  S
O1293      H1314   0.990       .  S
O1294      C1298   1.276       .  A
O1295      C1298   1.298       .  A
O1296      H1306   0.990       .  S
O1297      H1310   0.990       .  S
C1298      C2164   1.455       .  S
Zr1321     O1322   2.443       .  S
Zr1321     O1323   2.475       .  S
Zr1321     O1324   2.420       .  S
Zr1321     O1327   2.385       .  S
Zr1321     O1329   2.375       .  S
Zr1321     O1330   2.388       .  S
Zr1321     O1331   2.424       .  S
Zr1321     O1332   2.420       .  S
O1322      H1378   0.990       .  S
O1322      H1386   0.991       .  S
O1323      C1343   1.289       .  A
O1324      C1345   1.278       .  A
O1325     Zr1335   2.451       .  S
O1325      C1344   1.282       .  A
O1326     Zr1334   2.472       .  S
O1326      C1345   1.287       .  A
O1327      C1344   1.268       .  A
O1328     Zr1336   2.471       .  S
O1328      C1343   1.288       .  A
O1329     Zr1334   2.404       .  S
O1329     Zr1336   2.386       .  S
O1330     Zr1335   2.410       .  S
O1330     Zr1336   2.361       .  S
O1330      H1365   0.965       .  S
O1331     Zr1334   2.407       .  S
O1331     Zr1351   2.415       .  S
O1331      H1368   0.965       .  S
O1332     Zr1335   2.398       .  S
O1332     Zr1351   2.410       .  S
Zr1333     O1358   2.443       .  S
Zr1333     O1352   2.489       .  S
Zr1333     O1360   2.407       .  S
Zr1333     O1348   2.373       .  S
Zr1333     O1339   2.409       .  S
Zr1333     O1340   2.423       .  S
Zr1333     O1341   2.374       .  S
Zr1333     O1342   2.371       .  S
Zr1334     O1353   2.441       .  S
Zr1334     O1346   2.436       .  S
Zr1334     O1347   2.462       .  S
Zr1334     O1340   2.401       .  S
Zr1334     O1341   2.401       .  S
Zr1335     O1337   2.435       .  S
Zr1335     O1359   2.437       .  S
Zr1335     O1361   2.461       .  S
Zr1335     O1339   2.396       .  S
Zr1335     O1342   2.401       .  S
Zr1336     O1362   2.436       .  S
Zr1336     O1363   2.435       .  S
Zr1336     O1338   2.436       .  S
Zr1336     O1339   2.413       .  S
Zr1336     O1340   2.416       .  S
O1337      H1374   0.990       .  S
O1338      H1369   0.990       .  S
O1338      H1383   0.990       .  S
O1340      H1366   0.966       .  S
O1341     Zr1351   2.361       .  S
O1342     Zr1351   2.385       .  S
O1342      H1367   0.966       .  S
C1343      C2157   1.477       .  S
C1344      C2159   1.425       .  S
C1345      C2155   1.445       .  S
O1346      H1382   0.990       .  S
O1347      C1349   1.287       .  A
O1348      C1349   1.269       .  A
C1349      C2205   1.422       .  S
O1350     Zr1351   2.439       .  S
O1350      H1379   0.990       .  S
Zr1351     O1354   2.437       .  S
Zr1351     O1355   2.439       .  S
Zr1351     O1356   2.468       .  S
O1352      C1357   1.293       .  A
O1353      H1370   0.990       .  S
O1353      H1385   0.990       .  S
O1354      H1371   0.990       .  S
O1355      H1375   0.990       .  S
O1355      H1384   0.990       .  S
O1356      C1357   1.288       .  A
C1357      C2204   1.485       .  S
O1358      H1377   0.991       .  S
O1358      H1381   0.990       .  S
O1359      H1373   0.990       .  S
O1359      H1380   0.990       .  S
O1360      C1364   1.276       .  A
O1361      C1364   1.287       .  A
O1362      H1372   0.990       .  S
O1363      H1376   0.990       .  S
C1364      C2153   1.441       .  S
Zr1387     O1388   2.440       .  S
Zr1387     O1393   2.394       .  S
Zr1387     O3661   2.486   1_455  S
Zr1387     O3662   2.447   1_455  S
Zr1387     O1396   2.400       .  S
Zr1387     O1397   2.422       .  S
Zr1387     O1398   2.420       .  S
Zr1387     O3667   2.375   1_455  S
O1388      H1444   0.990       .  S
O1388      H1452   0.990       .  S
O1389     Zr3659   2.486       .  S
O1389      C1409   1.293       .  A
O1390     Zr3659   2.447       .  S
O1390      C1411   1.285       .  A
O1391     Zr1401   2.388       .  S
O1391      C1410   1.261       .  A
O1392     Zr1400   2.496       .  S
O1392      C1411   1.295       .  A
O1393      C1410   1.265       .  A
O1394     Zr1402   2.471       .  S
O1394      C1409   1.289       .  A
O1395     Zr1400   2.408       .  S
O1395     Zr1402   2.380       .  S
O1395     Zr3659   2.375       .  S
O1396     Zr1401   2.432       .  S
O1396     Zr3674   2.364   1_455  S
O1396      H1431   0.965       .  S
O1397     Zr1417   2.424       .  S
O1397     Zr3672   2.399   1_455  S
O1397      H1434   0.966       .  S
O1398     Zr1401   2.423       .  S
O1398     Zr1417   2.380       .  S
Zr1399     O1424   2.445       .  S
Zr1399     O1418   2.462       .  S
Zr1399     O1426   2.422       .  S
Zr1399     O1414   2.361       .  S
Zr1399     O1405   2.390       .  S
Zr1399     O1407   2.379       .  S
Zr1399     O1408   2.365       .  S
Zr1399     O3678   2.423   1_455  S
Zr1400     O1412   2.434       .  S
Zr1400     O3691   2.437       .  S
Zr1400     O1413   2.492       .  S
Zr1400     O1406   2.406       .  S
Zr1400     O3669   2.399       .  S
Zr1400     O3679   2.392       .  S
Zr1401     O1403   2.435       .  S
Zr1401     O1425   2.438       .  S
Zr1401     O1427   2.439       .  S
Zr1401     O1405   2.381       .  S
Zr1401     O1408   2.383       .  S
Zr1402     O1428   2.435       .  S
Zr1402     O1429   2.435       .  S
Zr1402     O1404   2.436       .  S
Zr1402     O1406   2.419       .  S
Zr1402     O3668   2.364       .  S
Zr1402     O3677   2.412       .  S
O1403      H1440   0.990       .  S
O1404      H1435   0.990       .  S
O1404      H1449   0.990       .  S
O1405     Zr3674   2.412   1_455  S
O1406     Zr3671   2.423       .  S
O1406      H1432   0.966       .  S
O1407     Zr1417   2.357       .  S
O1407     Zr3672   2.392   1_455  S
O1408     Zr1417   2.399       .  S
O1408      H1433   0.966       .  S
C1409      C2149   1.479       .  S
C1410      C2152   1.396       .  S
C1411      C2146   1.472       .  S
O1412      H1448   0.990       .  S
O1413      C1415   1.296       .  A
O1414      C3687   1.269       .  A
C1415      O3686   1.269       .  A
C1415      C2189   1.431       .  S
O1416     Zr1417   2.439       .  S
O1416      H1445   0.990       .  S
Zr1417     O1420   2.437       .  S
Zr1417     O1421   2.439       .  S
Zr1417     O1422   2.444       .  S
O1418      C1423   1.289       .  A
O1419     Zr3672   2.437   1_455  S
O1419      H1451   0.990       .  S
O1419      H3708   0.990   1_455  S
O1420      H1437   0.990       .  S
O1421      H1441   0.990       .  S
O1421      H1450   0.990       .  S
O1422      C1423   1.284       .  A
C1423      C2216   1.456       .  S
O1424      H1443   0.990       .  S
O1424      H3719   0.990       .  S
O1425      H1439   0.990       .  S
O1425      H1446   0.990       .  S
O1426      C1430   1.281       .  A
O1427      C1430   1.282       .  A
O1428      H1438   0.990       .  S
O1429      H1442   0.990       .  S
C1430      C2147   1.439       .  S
H1436      O3691   0.990       .  S
H1447      O3696   0.990       .  S
Zr1453     O1454   2.442       .  S
Zr1453     O1455   2.483       .  S
Zr1453     O1456   2.424       .  S
Zr1453     O1459   2.382       .  S
Zr1453     O1461   2.375       .  S
Zr1453     O1462   2.391       .  S
Zr1453     O1463   2.425       .  S
Zr1453     O1464   2.423       .  S
O1454      H1510   0.990       .  S
O1454      H1518   0.990       .  S
O1455      C1475   1.291       .  A
O1456      C1477   1.279       .  A
O1457     Zr1467   2.441       .  S
O1457      C1476   1.279       .  A
O1458     Zr1466   2.468       .  S
O1458      C1477   1.287       .  A
O1459      C1476   1.266       .  A
O1460     Zr1468   2.480       .  S
O1460      C1475   1.290       .  A
O1461     Zr1466   2.408       .  S
O1461     Zr1468   2.383       .  S
O1462     Zr1467   2.417       .  S
O1462     Zr1468   2.361       .  S
O1462      H1497   0.965       .  S
O1463     Zr1466   2.406       .  S
O1463     Zr1483   2.413       .  S
O1463      H1500   0.965       .  S
O1464     Zr1467   2.401       .  S
O1464     Zr1483   2.408       .  S
Zr1465     O1490   2.444       .  S
Zr1465     O1484   2.478       .  S
Zr1465     O1492   2.399       .  S
Zr1465     O1480   2.362       .  S
Zr1465     O1471   2.404       .  S
Zr1465     O1472   2.419       .  S
Zr1465     O1473   2.368       .  S
Zr1465     O1474   2.367       .  S
Zr1466     O1485   2.439       .  S
Zr1466     O1478   2.435       .  S
Zr1466     O1479   2.473       .  S
Zr1466     O1472   2.398       .  S
Zr1466     O1473   2.390       .  S
Zr1467     O1469   2.436       .  S
Zr1467     O1491   2.438       .  S
Zr1467     O1493   2.465       .  S
Zr1467     O1471   2.388       .  S
Zr1467     O1474   2.394       .  S
Zr1468     O1494   2.436       .  S
Zr1468     O1495   2.435       .  S
Zr1468     O1470   2.436       .  S
Zr1468     O1471   2.413       .  S
Zr1468     O1472   2.423       .  S
O1469      H1506   0.990       .  S
O1470      H1501   0.990       .  S
O1470      H1515   0.990       .  S
O1472      H1498   0.966       .  S
O1473     Zr1483   2.360       .  S
O1474     Zr1483   2.386       .  S
O1474      H1499   0.966       .  S
C1475      C2143   1.483       .  S
C1476      C2141   1.420       .  S
C1477      C2156   1.445       .  S
O1478      H1514   0.990       .  S
O1479      C1481   1.291       .  A
O1480      C1481   1.269       .  A
C1481      C2213   1.424       .  S
O1482     Zr1483   2.439       .  S
O1482      H1511   0.990       .  S
Zr1483     O1486   2.437       .  S
Zr1483     O1487   2.441       .  S
Zr1483     O1488   2.465       .  S
O1484      C1489   1.292       .  A
O1485      H1502   0.990       .  S
O1485      H1517   0.990       .  S
O1486      H1503   0.990       .  S
O1487      H1507   0.990       .  S
O1487      H1516   0.990       .  S
O1488      C1489   1.288       .  A
C1489      C2192   1.477       .  S
O1490      H1509   0.990       .  S
O1490      H1513   0.990       .  S
O1491      H1505   0.990       .  S
O1491      H1512   0.990       .  S
O1492      C1496   1.277       .  A
O1493      C1496   1.288       .  A
O1494      H1504   0.990       .  S
O1495      H1508   0.990       .  S
C1496      C2148   1.437       .  S
Zr1519     O1520   2.441       .  S
Zr1519     O1521   2.473       .  S
Zr1519     O1522   2.439       .  S
Zr1519     O1525   2.381       .  S
Zr1519     O1527   2.374       .  S
Zr1519     O1528   2.402       .  S
Zr1519     O1529   2.419       .  S
Zr1519     O1530   2.421       .  S
O1520      H1576   0.990       .  S
O1520      H1584   0.990       .  S
O1521      C1541   1.290       .  A
O1522      C1543   1.282       .  A
O1523     Zr1533   2.402       .  S
O1523      C1542   1.264       .  A
O1524     Zr1532   2.502       .  S
O1524      C1543   1.295       .  A
O1525      C1542   1.263       .  A
O1526     Zr1534   2.464       .  S
O1526      C1541   1.288       .  A
O1527     Zr1532   2.402       .  S
O1527     Zr1534   2.383       .  S
O1528     Zr1533   2.424       .  S
O1528     Zr1534   2.359       .  S
O1528      H1563   0.965       .  S
O1529     Zr1532   2.398       .  S
O1529     Zr1549   2.425       .  S
O1529      H1566   0.966       .  S
O1530     Zr1533   2.421       .  S
O1530     Zr1549   2.386       .  S
Zr1531     O1556   2.443   1_556  S
Zr1531     O1550   2.474       .  S
Zr1531     O1558   2.434   1_556  S
Zr1531     O1546   2.381       .  S
Zr1531     O1537   2.397       .  S
Zr1531     O1538   2.432       .  S
Zr1531     O1539   2.386       .  S
Zr1531     O1540   2.371       .  S
Zr1532     O1551   2.439       .  S
Zr1532     O1544   2.435       .  S
Zr1532     O1545   2.475       .  S
Zr1532     O1538   2.412       .  S
Zr1532     O1539   2.406       .  S
Zr1533     O1535   2.435       .  S
Zr1533     O1557   2.439       .  S
Zr1533     O1559   2.438   1_556  S
Zr1533     O1537   2.393       .  S
Zr1533     O1540   2.391       .  S
Zr1534     O1560   2.435       .  S
Zr1534     O1561   2.435   1_556  S
Zr1534     O1536   2.437       .  S
Zr1534     O1537   2.413       .  S
Zr1534     O1538   2.411       .  S
O1535      H1572   0.990       .  S
O1536      H1567   0.990       .  S
O1536      H1581   0.990       .  S
O1538      H1564   0.966       .  S
O1539     Zr1549   2.359       .  S
O1540     Zr1549   2.399       .  S
O1540      H1565   0.966       .  S
C1541      C2139   1.468       .  S
C1542      C2138   1.407       .  S
C1543      C2145   1.472       .  S
O1544      H1580   0.990       .  S
O1545      C1547   1.289       .  A
O1546      C1547   1.268       .  A
C1547      C2201   1.431       .  S
O1548     Zr1549   2.439       .  S
O1548      H1577   0.990       .  S
Zr1549     O1552   2.437       .  S
Zr1549     O1553   2.438       .  S
Zr1549     O1554   2.444       .  S
O1550      C1555   1.290       .  A
O1551      H1568   0.990       .  S
O1551      H1583   0.990       .  S
O1552      H1569   0.990       .  S
O1553      H1573   0.990       .  S
O1553      H1582   0.990       .  S
O1554      C1555   1.283       .  A
C1555      C2207   1.463       .  S
O1556      H1575   0.990       .  S
O1556      H1579   0.991       .  S
O1557      H1571   0.990       .  S
O1557      H1578   0.990       .  S
O1558      C1562   1.280       .  A
O1559      C1562   1.282       .  A
O1560      H1570   0.990       .  S
O1561      H1574   0.990       .  S
C1562      C2154   1.443       .  S
Zr1585     O1586   2.440       .  S
Zr1585     O1587   2.467       .  S
Zr1585     O1588   2.432   1_545  S
Zr1585     O1591   2.388       .  S
Zr1585     O1593   2.369   1_545  S
Zr1585     O1594   2.391       .  S
Zr1585     O1595   2.412   1_545  S
Zr1585     O1596   2.422       .  S
O1586      H1642   0.989       .  S
O1586      H1650   0.990       .  S
O1587      C1607   1.288       .  A
O1588      C1609   1.282       .  A
O1589     Zr1599   2.453       .  S
O1589      C1608   1.283       .  A
O1590     Zr1598   2.434       .  S
O1590      C1609   1.281       .  A
O1591      C1608   1.268       .  A
O1592     Zr1600   2.441       .  S
O1592      C1607   1.282       .  A
O1593     Zr1598   2.398       .  S
O1593     Zr1600   2.386   1_565  S
O1594     Zr1599   2.416       .  S
O1594     Zr1600   2.361       .  S
O1594      H1629   0.966       .  S
O1595     Zr1598   2.400       .  S
O1595     Zr1615   2.402       .  S
O1595      H1632   0.964       .  S
O1596     Zr1599   2.399       .  S
O1596     Zr1615   2.410   1_545  S
Zr1597     O1622   2.449   1_556  S
Zr1597     O1616   2.472       .  S
Zr1597     O1624   2.399   1_566  S
Zr1597     O1612   2.370       .  S
Zr1597     O1603   2.404   1_565  S
Zr1597     O1604   2.408       .  S
Zr1597     O1605   2.365       .  S
Zr1597     O1606   2.370   1_565  S
Zr1598     O1617   2.435       .  S
Zr1598     O1610   2.436       .  S
Zr1598     O1611   2.424       .  S
Zr1598     O1604   2.400       .  S
Zr1598     O1605   2.395       .  S
Zr1599     O1601   2.435       .  S
Zr1599     O1623   2.437       .  S
Zr1599     O1625   2.473   1_556  S
Zr1599     O1603   2.390       .  S
Zr1599     O1606   2.396       .  S
Zr1600     O1626   2.436       .  S
Zr1600     O1627   2.435   1_556  S
Zr1600     O1602   2.436       .  S
Zr1600     O1603   2.405       .  S
Zr1600     O1604   2.392   1_545  S
O1601      H1638   0.990       .  S
O1602      H1633   0.990       .  S
O1602      H1647   0.990   1_545  S
O1604      H1630   0.965       .  S
O1605     Zr1615   2.368       .  S
O1606     Zr1615   2.378   1_545  S
O1606      H1631   0.965       .  S
C1607      C2133   1.460       .  S
C1608      C2135   1.427       .  S
C1609      C2130   1.431       .  S
O1610      H1646   0.990       .  S
O1611      C1613   1.281       .  A
O1612      C1613   1.272       .  A
C1613      C2262   1.401   1_556  S
O1614     Zr1615   2.440       .  S
O1614      H1643   0.990       .  S
Zr1615     O1618   2.437       .  S
Zr1615     O1619   2.442       .  S
Zr1615     O1620   2.458       .  S
O1616      C1621   1.291       .  A
O1617      H1634   0.990       .  S
O1617      H1649   0.990       .  S
O1618      H1635   0.990       .  S
O1619      H1639   0.990       .  S
O1619      H1648   0.990       .  S
O1620      C1621   1.286       .  A
C1621      C2272   1.471       .  S
O1622      H1641   0.990       .  S
O1622      H1645   0.990       .  S
O1623      H1637   0.990       .  S
O1623      H1644   0.990       .  S
O1624      C1628   1.277       .  A
O1625      C1628   1.291       .  A
O1626      H1636   0.990       .  S
O1627      H1640   0.990       .  S
C1628      C2131   1.440       .  S
Zr1651     O1652   2.441       .  S
Zr1651     O1653   2.473       .  S
Zr1651     O1654   2.448       .  S
Zr1651     O1657   2.389       .  S
Zr1651     O1659   2.373       .  S
Zr1651     O1660   2.401       .  S
Zr1651     O1661   2.414   1_545  S
Zr1651     O1662   2.426       .  S
O1652      H1708   0.990       .  S
O1652      H1716   0.990       .  S
O1653      C1673   1.290       .  A
O1654      C1675   1.285   1_545  A
O1655     Zr1665   2.405       .  S
O1655      C1674   1.267       .  A
O1656     Zr1664   2.454       .  S
O1656      C1675   1.286       .  A
O1657      C1674   1.265       .  A
O1658     Zr1666   2.440       .  S
O1658      C1673   1.283       .  A
O1659     Zr1664   2.396   1_545  S
O1659     Zr1666   2.382       .  S
O1660     Zr1665   2.426       .  S
O1660     Zr1666   2.363       .  S
O1660      H1695   0.965       .  S
O1661     Zr1664   2.394       .  S
O1661     Zr1681   2.419       .  S
O1661      H1698   0.966       .  S
O1662     Zr1665   2.414       .  S
O1662     Zr1681   2.398   1_545  S
Zr1663     O1688   2.448       .  S
Zr1663     O1682   2.455       .  S
Zr1663     O1690   2.428   1_565  S
Zr1663     O1678   2.363       .  S
Zr1663     O1669   2.389   1_565  S
Zr1663     O1670   2.413       .  S
Zr1663     O1671   2.376       .  S
Zr1663     O1672   2.368       .  S
Zr1664     O1683   2.437       .  S
Zr1664     O1676   2.435       .  S
Zr1664     O1677   2.435       .  S
Zr1664     O1670   2.405       .  S
Zr1664     O1671   2.393       .  S
Zr1665     O1667   2.435       .  S
Zr1665     O1689   2.439       .  S
Zr1665     O1691   2.444       .  S
Zr1665     O1669   2.385       .  S
Zr1665     O1672   2.390   1_545  S
Zr1666     O1692   2.435       .  S
Zr1666     O1693   2.435       .  S
Zr1666     O1668   2.437       .  S
Zr1666     O1669   2.404       .  S
Zr1666     O1670   2.397   1_545  S
O1667      H1704   0.990       .  S
O1668      H1699   0.990       .  S
O1668      H1713   0.990       .  S
O1670      H1696   0.966       .  S
O1671     Zr1681   2.359       .  S
O1672     Zr1681   2.394       .  S
O1672      H1697   0.966       .  S
C1673      C2126   1.459       .  S
C1674      C2123   1.410       .  S
C1675      C2128   1.452       .  S
O1676      H1712   0.990       .  S
O1677      C1679   1.284       .  A
O1678      C1679   1.270       .  A
C1679      C2269   1.406       .  S
O1680     Zr1681   2.440       .  S
O1680      H1709   0.990       .  S
Zr1681     O1684   2.437       .  S
Zr1681     O1685   2.441       .  S
Zr1681     O1686   2.453       .  S
O1682      C1687   1.288       .  A
O1683      H1700   0.990       .  S
O1683      H1715   0.990       .  S
O1684      H1701   0.990       .  S
O1685      H1705   0.990       .  S
O1685      H1714   0.989       .  S
O1686      C1687   1.286       .  A
C1687      C2264   1.460       .  S
O1688      H1707   0.990       .  S
O1688      H1711   0.990       .  S
O1689      H1703   0.990       .  S
O1689      H1710   0.990       .  S
O1690      C1694   1.282       .  A
O1691      C1694   1.284       .  A
O1692      H1702   0.990       .  S
O1693      H1706   0.990       .  S
C1694      C2132   1.443       .  S
Zr1717     O1718   2.442       .  S
Zr1717     O1719   2.480       .  S
Zr1717     O1720   2.412   1_545  S
Zr1717     O1723   2.382       .  S
Zr1717     O1725   2.376   1_545  S
Zr1717     O1726   2.384       .  S
Zr1717     O1727   2.426   1_545  S
Zr1717     O1728   2.420       .  S
O1718      H1774   0.990       .  S
O1718      H1782   0.991       .  S
O1719      C1739   1.290       .  A
O1720      C1741   1.277       .  A
O1721     Zr1731   2.444       .  S
O1721      C1740   1.280       .  A
O1722     Zr1730   2.452       .  S
O1722      C1741   1.283       .  A
O1723      C1740   1.267       .  A
O1724     Zr1732   2.468       .  S
O1724      C1739   1.288       .  A
O1725     Zr1730   2.404       .  S
O1725     Zr1732   2.384   1_565  S
O1726     Zr1731   2.408       .  S
O1726     Zr1732   2.366       .  S
O1726      H1761   0.965       .  S
O1727     Zr1730   2.409       .  S
O1727     Zr1747   2.407       .  S
O1727      H1764   0.964       .  S
O1728     Zr1731   2.392       .  S
O1728     Zr1747   2.413   1_545  S
Zr1729     O1754   2.443       .  S
Zr1729     O1748   2.475       .  S
Zr1729     O1756   2.401   1_565  S
Zr1729     O1744   2.370       .  S
Zr1729     O1735   2.402   1_565  S
Zr1729     O1736   2.418       .  S
Zr1729     O1737   2.367       .  S
Zr1729     O1738   2.370   1_565  S
Zr1730     O1749   2.442       .  S
Zr1730     O1742   2.435       .  S
Zr1730     O1743   2.457       .  S
Zr1730     O1736   2.395       .  S
Zr1730     O1737   2.389       .  S
Zr1731     O1733   2.436       .  S
Zr1731     O1755   2.438       .  S
Zr1731     O1757   2.444       .  S
Zr1731     O1735   2.392       .  S
Zr1731     O1738   2.396       .  S
Zr1732     O1758   2.436       .  S
Zr1732     O1759   2.435       .  S
Zr1732     O1734   2.437   1_545  S
Zr1732     O1735   2.407       .  S
Zr1732     O1736   2.421   1_545  S
O1733      H1770   0.990       .  S
O1734      H1765   0.990   1_565  S
O1734      H1779   0.990       .  S
O1736      H1762   0.966       .  S
O1737     Zr1747   2.358       .  S
O1738     Zr1747   2.381   1_545  S
O1738      H1763   0.966       .  S
C1739      C2122   1.476       .  S
C1740      C2120   1.421       .  S
C1741      C2129   1.429       .  S
O1742      H1778   0.990       .  S
O1743      C1745   1.287       .  A
O1744      C1745   1.271       .  A
C1745      C2162   1.419       .  S
O1746     Zr1747   2.439   1_545  S
O1746      H1775   0.990   1_545  S
Zr1747     O1750   2.438       .  S
Zr1747     O1751   2.440   1_565  S
Zr1747     O1752   2.467       .  S
O1748      C1753   1.291       .  A
O1749      H1766   0.990       .  S
O1749      H1781   0.990       .  S
O1750      H1767   0.990       .  S
O1751      H1771   0.990   1_545  S
O1751      H1780   0.990       .  S
O1752      C1753   1.288       .  A
C1753      C2168   1.477       .  S
O1754      H1773   0.990       .  S
O1754      H1777   0.990       .  S
O1755      H1769   0.990       .  S
O1755      H1776   0.990       .  S
O1756      C1760   1.278       .  A
O1757      C1760   1.284       .  A
O1758      H1768   0.990       .  S
O1759      H1772   0.990       .  S
C1760      C2118   1.426       .  S
Zr1783     O1784   2.441       .  S
Zr1783     O1789   2.386       .  S
Zr1783     O4057   2.484   1_455  S
Zr1783     O4058   2.427   1_455  S
Zr1783     O1792   2.395       .  S
Zr1783     O1793   2.421   1_545  S
Zr1783     O1794   2.420       .  S
Zr1783     O4063   2.374   1_455  S
O1784      H1840   0.990       .  S
O1784      H1848   0.990       .  S
O1785     Zr4055   2.484       .  S
O1785      C1805   1.292       .  A
O1786     Zr4055   2.427       .  S
O1786      C1807   1.281   1_545  A
O1787     Zr1797   2.392       .  S
O1787      C1806   1.262       .  A
O1788     Zr1796   2.472       .  S
O1788      C1807   1.290       .  A
O1789      C1806   1.264       .  A
O1790     Zr1798   2.470       .  S
O1790      C1805   1.289       .  A
O1791     Zr1796   2.403   1_545  S
O1791     Zr1798   2.377       .  S
O1791     Zr4055   2.374       .  S
O1792     Zr1797   2.426       .  S
O1792     Zr4070   2.365   1_455  S
O1792      H1827   0.965       .  S
O1793     Zr1813   2.423       .  S
O1793     Zr4068   2.398       .  S
O1793      H1830   0.966       .  S
O1794     Zr1797   2.415       .  S
O1794     Zr1813   2.389   1_545  S
Zr1795     O1820   2.444       .  S
Zr1795     O1814   2.458       .  S
Zr1795     O1822   2.414   1_565  S
Zr1795     O1810   2.369       .  S
Zr1795     O1801   2.392   1_565  S
Zr1795     O1803   2.373       .  S
Zr1795     O1804   2.368   1_565  S
Zr1795     O4074   2.419   1_455  S
Zr1796     O1808   2.435       .  S
Zr1796     O4087   2.438       .  S
Zr1796     O1809   2.471       .  S
Zr1796     O1802   2.402       .  S
Zr1796     O4065   2.398       .  S
Zr1796     O4075   2.388       .  S
Zr1797     O1799   2.435       .  S
Zr1797     O1821   2.438       .  S
Zr1797     O1823   2.424       .  S
Zr1797     O1801   2.385       .  S
Zr1797     O1804   2.385       .  S
Zr1798     O1824   2.435       .  S
Zr1798     O1825   2.435       .  S
Zr1798     O1800   2.437       .  S
Zr1798     O1802   2.419   1_545  S
Zr1798     O4064   2.365       .  S
Zr1798     O4073   2.410       .  S
O1799      H1836   0.990       .  S
O1800      H1831   0.990       .  S
O1800      H1845   0.990       .  S
O1801     Zr4070   2.410   1_455  S
O1802     Zr4067   2.419       .  S
O1802      H1828   0.966       .  S
O1803     Zr1813   2.355       .  S
O1803     Zr4068   2.388       .  S
O1804     Zr1813   2.395   1_545  S
O1804      H1829   0.966       .  S
C1805      C2113   1.478       .  S
C1806      C2115   1.400       .  S
C1807      C2127   1.451       .  S
O1808      H1844   0.990       .  S
O1809      C1811   1.292       .  A
O1810      C4083   1.271       .  A
C1811      O4082   1.271       .  A
C1811      C2166   1.424       .  S
O1812     Zr1813   2.439       .  S
O1812      H1841   0.990       .  S
Zr1813     O1816   2.437       .  S
Zr1813     O1817   2.439   1_565  S
Zr1813     O1818   2.452       .  S
O1814      C1819   1.288       .  A
O1815     Zr4068   2.438       .  S
O1815      H1847   0.990       .  S
O1815      H4104   0.990   1_455  S
O1816      H1833   0.990       .  S
O1817      H1837   0.990   1_545  S
O1817      H1846   0.990       .  S
O1818      C1819   1.286       .  A
C1819      C2163   1.459       .  S
O1820      H1839   0.990       .  S
O1820      H4115   0.990       .  S
O1821      H1835   0.990       .  S
O1821      H1842   0.990       .  S
O1822      C1826   1.280       .  A
O1823      C1826   1.279       .  A
O1824      H1834   0.990       .  S
O1825      H1838   0.990       .  S
C1826      C2117   1.428       .  S
H1832      O4087   0.990       .  S
H1843      O4092   0.990       .  S
Zr1849     O4122   2.432   1_455  S
Zr1849     O1855   2.395       .  S
Zr1849     O4123   2.434   1_455  S
Zr1849     O4124   2.410   1_455  S
Zr1849     O1857   2.386       .  S
Zr1849     O1858   2.377       .  S
Zr1849     O1859   2.406       .  S
Zr1849     O1860   2.382       .  S
O1850     Zr4121   2.432       .  S
O1850      H1906   0.984       .  S
O1850      H1914   0.990       .  S
O1851     Zr4121   2.434       .  S
O1851      C4143   1.282       .  A
O1852     Zr4121   2.410       .  S
O1852      C1873   1.274       .  A
O1853     Zr1863   2.399       .  S
O1853      C1872   1.275       .  A
O1854     Zr4134   2.483       .  S
O1854      C1873   1.288       .  A
O1855      C1872   1.275       .  A
O1856     Zr1864   2.485       .  S
O1856      C1871   1.292   1_455  A
O1857     Zr1862   2.420       .  S
O1857     Zr1864   2.378       .  S
O1858     Zr1863   2.372       .  S
O1858     Zr1864   2.361       .  S
O1858      H1893   0.965       .  S
O1859     Zr1862   2.437       .  S
O1859     Zr1879   2.351       .  S
O1859      H4168   0.963       .  S
O1860     Zr1863   2.388       .  S
O1860     Zr1879   2.371       .  S
Zr1861     O1886   2.440       .  S
Zr1861     O1880   2.448       .  S
Zr1861     O1888   2.407       .  S
Zr1861     O1876   2.401       .  S
Zr1861     O1867   2.408       .  S
Zr1861     O1868   2.412       .  S
Zr1861     O1869   2.382       .  S
Zr1861     O1870   2.383       .  S
Zr1862     O1881   2.437       .  S
Zr1862     O1874   2.434       .  S
Zr1862     O1875   2.536       .  S
Zr1862     O4126   2.483   1_455  S
Zr1862     O1868   2.402       .  S
Zr1862     O1869   2.385       .  S
Zr1863     O1865   2.437       .  S
Zr1863     O1887   2.434       .  S
Zr1863     O1889   2.425       .  S
Zr1863     O1867   2.387       .  S
Zr1863     O1870   2.368       .  S
Zr1864     O1890   2.435       .  S
Zr1864     O1891   2.434       .  S
Zr1864     O1866   2.436       .  S
Zr1864     O1867   2.419       .  S
Zr1864     O1868   2.425       .  S
O1865      H1902   0.990       .  S
O1866      H1897   0.990       .  S
O1866      H1911   0.990   1_455  S
O1868      H1894   0.966       .  S
O1869     Zr1879   2.390       .  S
O1870     Zr1879   2.350       .  S
O1870      H1895   0.962       .  S
C1871      O4123   1.282       .  A
C1871      C4397   1.459       .  S
C1872      C2116   1.396       .  S
C1873      C2005   1.473       .  S
O1874      H4182   0.990   1_455  S
O1875      C1877   1.304       .  A
O1876      C1877   1.277       .  A
C1877      C2158   1.473       .  S
O1878     Zr1879   2.440       .  S
O1878      H1907   0.990       .  S
Zr1879     O1882   2.436       .  S
Zr1879     O1883   2.436       .  S
Zr1879     O1884   2.385       .  S
O1880      C1885   1.282       .  A
O1881      H4170   0.990   1_455  S
O1881      H4185   0.990       .  S
O1882      H1899   0.990       .  S
O1883      H1903   0.990       .  S
O1883      H1912   0.990       .  S
O1884      C1885   1.264       .  A
C1885      C2142   1.415       .  S
O1886      H1905   0.990       .  S
O1886      H1909   0.990       .  S
O1887      H1901   0.990       .  S
O1887      H1908   0.990       .  S
O1888      C1892   1.283       .  A
O1889      C1892   1.281       .  A
O1890      H1900   0.990       .  S
O1891      H1904   0.990       .  S
C1892      C2024   1.444       .  S
H1896      O4131   0.963       .  S
H1898      O4153   0.990       .  S
H1910      O4146   0.990       .  S
H1913      O4153   0.990       .  S
Zr1915     O1916   2.444       .  S
Zr1915     O1917   2.448       .  S
Zr1915     O1918   2.422       .  S
Zr1915     O1921   2.410       .  S
Zr1915     O1923   2.394       .  S
Zr1915     O1924   2.378       .  S
Zr1915     O1925   2.413       .  S
Zr1915     O1926   2.388       .  S
O1916      H1972   0.989       .  S
O1916      H1980   0.990       .  S
O1917      C1937   1.285       .  A
O1918      C1939   1.276       .  A
O1919     Zr1929   2.382       .  S
O1919      C1938   1.274       .  A
O1920     Zr1928   2.455       .  S
O1920      C1939   1.280       .  A
O1921      C1938   1.277       .  A
O1922     Zr1930   2.509       .  S
O1922      C1937   1.297       .  A
O1923     Zr1928   2.430       .  S
O1923     Zr1930   2.371       .  S
O1924     Zr1929   2.374       .  S
O1924     Zr1930   2.360       .  S
O1924      H1959   0.965       .  S
O1925     Zr1928   2.446       .  S
O1925     Zr1945   2.344       .  S
O1925      H1962   0.964       .  S
O1926     Zr1929   2.387       .  S
O1926     Zr1945   2.373       .  S
Zr1927     O1952   2.441       .  S
Zr1927     O1946   2.464       .  S
Zr1927     O1954   2.404       .  S
Zr1927     O1942   2.403       .  S
Zr1927     O1933   2.415       .  S
Zr1927     O1934   2.416       .  S
Zr1927     O1935   2.372       .  S
Zr1927     O1936   2.378       .  S
Zr1928     O1947   2.438       .  S
Zr1928     O1940   2.434       .  S
Zr1928     O1941   2.532       .  S
Zr1928     O1934   2.395       .  S
Zr1928     O1935   2.381       .  S
Zr1929     O1931   2.437       .  S
Zr1929     O1953   2.434       .  S
Zr1929     O1955   2.420       .  S
Zr1929     O1933   2.382       .  S
Zr1929     O1936   2.371       .  S
Zr1930     O1956   2.435       .  S
Zr1930     O1957   2.434       .  S
Zr1930     O1932   2.436       .  S
Zr1930     O1933   2.426       .  S
Zr1930     O1934   2.437       .  S
O1931      H1968   0.990       .  S
O1932      H1963   0.990       .  S
O1932      H1977   0.990       .  S
O1934      H1960   0.966       .  S
O1935     Zr1945   2.394       .  S
O1936     Zr1945   2.354       .  S
O1936      H1961   0.963       .  S
C1937      C2150   1.478       .  S
C1938      C2137   1.400       .  S
C1939      C2071   1.465       .  S
O1940      H1976   0.990       .  S
O1941      C1943   1.303       .  A
O1942      C1943   1.277       .  A
C1943      C2121   1.473       .  S
O1944     Zr1945   2.440       .  S
O1944      H1973   0.990       .  S
Zr1945     O1948   2.438       .  S
Zr1945     O1949   2.437       .  S
Zr1945     O1950   2.379       .  S
O1946      C1951   1.286       .  A
O1947      H1964   0.990       .  S
O1947      H1979   0.990       .  S
O1948      H1965   0.990       .  S
O1949      H1969   0.990       .  S
O1949      H1978   0.990       .  S
O1950      C1951   1.266       .  A
C1951      C2136   1.423       .  S
O1952      H1971   0.990       .  S
O1952      H1975   0.990       .  S
O1953      H1967   0.990       .  S
O1953      H1974   0.990       .  S
O1954      C1958   1.282       .  A
O1955      C1958   1.279       .  A
O1956      H1966   0.990       .  S
O1957      H1970   0.990       .  S
C1958      C2090   1.443       .  S
Zr1981     O1982   2.436       .  S
Zr1981     O1983   2.450       .  S
Zr1981     O1984   2.437       .  S
Zr1981     O1987   2.436       .  S
Zr1981     O1989   2.396       .  S
Zr1981     O1990   2.380       .  S
Zr1981     O1991   2.417       .  S
Zr1981     O1992   2.389       .  S
O1982      H2038   0.990       .  S
O1982      H2046   0.991       .  S
O1983      C2003   1.285       .  A
O1984      C2005   1.278       .  A
O1985     Zr1995   2.386       .  S
O1985      C2004   1.271       .  A
O1986     Zr1994   2.465       .  S
O1986      C2005   1.282       .  A
O1987      C2004   1.280       .  A
O1988     Zr1996   2.507       .  S
O1988      C2003   1.297       .  A
O1989     Zr1994   2.432       .  S
O1989     Zr1996   2.373       .  S
O1990     Zr1995   2.386       .  S
O1990     Zr1996   2.356       .  S
O1990      H2025   0.965       .  S
O1991     Zr1994   2.451       .  S
O1991     Zr2011   2.343       .  S
O1991      H2028   0.963       .  S
O1992     Zr1995   2.398       .  S
O1992     Zr2011   2.372       .  S
Zr1993     O2018   2.441       .  S
Zr1993     O2012   2.460       .  S
Zr1993     O2020   2.402       .  S
Zr1993     O2008   2.401       .  S
Zr1993     O1999   2.414       .  S
Zr1993     O2000   2.415       .  S
Zr1993     O2001   2.375       .  S
Zr1993     O2002   2.379       .  S
Zr1994     O2013   2.438       .  S
Zr1994     O2006   2.434       .  S
Zr1994     O2007   2.547       .  S
Zr1994     O2000   2.396       .  S
Zr1994     O2001   2.379       .  S
Zr1995     O1997   2.437       .  S
Zr1995     O2019   2.435       .  S
Zr1995     O2021   2.430       .  S
Zr1995     O1999   2.383       .  S
Zr1995     O2002   2.370       .  S
Zr1996     O2022   2.436       .  S
Zr1996     O2023   2.434       .  S
Zr1996     O1998   2.436       .  S
Zr1996     O1999   2.426       .  S
Zr1996     O2000   2.437       .  S
O1997      H2034   0.990       .  S
O1998      H2029   0.990       .  S
O1998      H2043   0.990       .  S
O2000      H2026   0.966       .  S
O2001     Zr2011   2.394       .  S
O2002     Zr2011   2.349       .  S
O2002      H2027   0.962       .  S
C2003      C2114   1.478       .  S
C2004      C2124   1.407       .  S
O2006      H2042   0.990       .  S
O2007      C2009   1.306       .  A
O2008      C2009   1.277       .  A
C2009      C2144   1.480       .  S
O2010     Zr2011   2.440       .  S
O2010      H2039   0.990       .  S
Zr2011     O2014   2.437       .  S
Zr2011     O2015   2.437       .  S
Zr2011     O2016   2.381       .  S
O2012      C2017   1.286       .  A
O2013      H2030   0.990       .  S
O2013      H2045   0.990       .  S
O2014      H2031   0.990       .  S
O2015      H2035   0.990       .  S
O2015      H2044   0.990       .  S
O2016      C2017   1.266       .  A
C2017      C2160   1.420       .  S
O2018      H2037   0.990       .  S
O2018      H2041   0.990       .  S
O2019      H2033   0.990       .  S
O2019      H2040   0.990       .  S
O2020      C2024   1.282       .  A
O2021      C2024   1.282       .  A
O2022      H2032   0.990       .  S
O2023      H2036   0.990       .  S
Zr2047     O4320   2.429   1_455  S
Zr2047     O2053   2.391       .  S
Zr2047     O4321   2.445   1_455  S
Zr2047     O4322   2.415   1_455  S
Zr2047     O2055   2.383       .  S
Zr2047     O2056   2.376       .  S
Zr2047     O2057   2.403       .  S
Zr2047     O2058   2.389       .  S
O2048     Zr4319   2.429       .  S
O2048      H2104   0.985       .  S
O2048      H2112   0.990       .  S
O2049     Zr4319   2.445       .  S
O2049      C4341   1.284       .  A
O2050     Zr4319   2.415       .  S
O2050      C2071   1.275       .  A
O2051     Zr2061   2.400       .  S
O2051      C2070   1.275       .  A
O2052     Zr4332   2.461       .  S
O2052      C2071   1.284       .  A
O2053      C2070   1.274       .  A
O2054     Zr2062   2.488       .  S
O2054      C2069   1.293   1_455  A
O2055     Zr2060   2.420       .  S
O2055     Zr2062   2.382       .  S
O2056     Zr2061   2.381       .  S
O2056     Zr2062   2.359       .  S
O2056      H2091   0.965       .  S
O2057     Zr2060   2.434       .  S
O2057     Zr2077   2.344       .  S
O2057      H2094   0.963       .  S
O2058     Zr2061   2.391       .  S
O2058     Zr2077   2.372       .  S
Zr2059     O2084   2.440       .  S
Zr2059     O2078   2.450       .  S
Zr2059     O2086   2.395       .  S
Zr2059     O2074   2.389       .  S
Zr2059     O2065   2.407       .  S
Zr2059     O2066   2.410       .  S
Zr2059     O2067   2.376       .  S
Zr2059     O2068   2.378       .  S
Zr2060     O2079   2.438       .  S
Zr2060     O2072   2.434   1_455  S
Zr2060     O2073   2.512       .  S
Zr2060     O4324   2.461   1_455  S
Zr2060     O2066   2.398       .  S
Zr2060     O2067   2.384       .  S
Zr2061     O2063   2.437       .  S
Zr2061     O2085   2.434       .  S
Zr2061     O2087   2.434       .  S
Zr2061     O2065   2.386       .  S
Zr2061     O2068   2.369       .  S
Zr2062     O2088   2.435       .  S
Zr2062     O2089   2.434       .  S
Zr2062     O2064   2.435       .  S
Zr2062     O2065   2.420       .  S
Zr2062     O2066   2.426       .  S
O2063      H2100   0.990       .  S
O2064      H2095   0.990       .  S
O2064      H2109   0.990   1_455  S
O2066      H2092   0.966       .  S
O2067     Zr2077   2.390       .  S
O2068     Zr2077   2.346       .  S
O2068      H2093   0.962       .  S
C2069      O4321   1.284       .  A
C2069      C4412   1.467       .  S
C2070      C2151   1.392       .  S
O2072      H4380   0.990       .  S
O2073      C2075   1.298       .  A
O2074      C2075   1.275       .  A
C2075      C2134   1.456       .  S
O2076     Zr2077   2.440       .  S
O2076      H2105   0.990       .  S
Zr2077     O2080   2.437       .  S
Zr2077     O2081   2.437       .  S
Zr2077     O2082   2.384       .  S
O2078      C2083   1.283       .  A
O2079      H4368   0.990   1_455  S
O2079      H4383   0.990       .  S
O2080      H2097   0.990       .  S
O2081      H2101   0.990       .  S
O2081      H2110   0.990       .  S
O2082      C2083   1.266       .  A
C2083      C2119   1.416       .  S
O2084      H2103   0.990       .  S
O2084      H2107   0.990       .  S
O2085      H2099   0.990       .  S
O2085      H2106   0.990       .  S
O2086      C2090   1.280       .  A
O2087      C2090   1.283       .  A
O2088      H2098   0.990       .  S
O2089      H2102   0.990       .  S
H2096      O4351   0.990       .  S
H2108      O4344   0.990       .  S
H2111      O4351   0.990       .  S
C2113      C2114   1.231       .  T
C2115      C2116   1.185       .  T
C2117      C2118   1.201       .  T
C2119      C2120   1.198       .  T
C2121      C2122   1.230       .  T
C2123      C2124   1.191       .  T
C2125      C4143   1.459       .  S
C2125      C2126   1.220       .  T
C2127      C2128   1.216       .  T
C2129      C2130   1.203       .  T
C2131      C2132   1.210       .  T
C2133      C2134   1.220       .  T
C2135      C2136   1.201       .  T
C2137      C2138   1.188       .  T
C2139      C2140   1.225       .  T
C2140      C4341   1.467       .  S
C2141      C2142   1.197       .  T
C2143      C2144   1.234       .  T
C2145      C2146   1.228       .  T
C2147      C2148   1.208       .  T
C2149      C2150   1.232       .  T
C2151      C2152   1.182       .  T
C2153      C2154   1.210       .  T
C2155      C2156   1.212       .  T
C2157      C2158   1.230       .  T
C2159      C2160   1.200       .  T
C2161      C2162   1.197       .  T
C2163      C2164   1.219       .  T
C2165      C4438   1.201       .  T
C2166      C4437   1.201       .  T
C2167      C3504   1.473       .  S
C2167      C2168   1.230   1_655  T
C2169      C2170   1.193       .  T
C2171      C2172   1.215       .  T
C2173      C2174   1.199       .  T
C2175      C2176   1.226       .  T
C2177      C2178   1.189       .  T
C2179      C2180   1.203       .  T
C2181      C2182   1.192       .  T
C2183      C2184   1.205       .  T
C2185      C2186   1.186       .  T
C2187      C2188   1.231       .  T
C2189      C4462   1.207       .  T
C2190      C4461   1.207       .  T
C2191      C3108   1.473       .  S
C2191      C2192   1.231   1_655  T
C2193      C2194   1.183       .  T
C2195      C3021   1.451       .  S
C2195      C2196   1.215       .  T
C2197      C2198   1.189       .  T
C2199      C2200   1.227       .  T
C2201      C2202   1.206   1_556  T
C2203      C2204   1.235       .  T
C2205      C2206   1.200       .  T
C2207      C2208   1.222       .  T
C2209      C2210   1.185       .  T
C2211      C2212   1.218       .  T
C2213      C2214   1.201       .  T
C2215      C2216   1.218       .  T
C2217      C2218   1.178       .  T
C2219      C2220   1.243       .  T
C2221      C2222   1.201       .  T
C2223      C2224   1.220       .  T
C2225      C2226   1.231       .  T
C2227      C2228   1.214       .  T
C2229      C2230   1.202       .  T
C2231      C2559   1.458   1_455  S
C2231      C2232   1.219       .  T
C2233      C2234   1.179       .  T
C2235      C2236   1.200       .  T
C2237      C2238   1.226       .  T
C2239      C2240   1.199       .  T
C2241      C2242   1.227       .  T
C2243      C2244   1.187       .  T
C2245      C2246   1.211       .  T
C2247      C2248   1.200       .  T
C2249      C2250   1.186       .  T
C2251      C2252   1.236       .  T
C2252      C2889   1.486       .  S
C2253      C2254   1.226       .  T
C2255      C2256   1.199       .  T
C2257      C2258   1.200   1_554  T
C2259      C2260   1.218       .  T
C2261      C2262   1.190       .  T
C2263      C2264   1.220       .  T
C2265      C2266   1.198       .  T
C2267      C4540   1.227       .  T
C2268      C4539   1.227   1_455  T
C2269      C2270   1.193       .  T
C2271      C2272   1.227       .  T
Zr2273     O2274   2.440       .  S
Zr2273     O2275   2.437       .  S
Zr2273     O2276   2.428       .  S
Zr2273     O2279   2.424       .  S
Zr2273     O2281   2.378       .  S
Zr2273     O2282   2.405       .  S
Zr2273     O2283   2.420       .  S
Zr2273     O2284   2.403       .  S
O2274      H2330   0.990       .  S
O2274      H2338   0.991       .  S
O2275      C2295   1.283       .  A
O2276      C2297   1.275       .  A
O2277     Zr2287   2.472       .  S
O2277      C2296   1.285       .  A
O2278     Zr2286   2.380       .  S
O2278      C2297   1.266       .  A
O2279      C2296   1.275       .  A
O2280     Zr2288   2.490       .  S
O2280      C2295   1.293   1_556  A
O2281     Zr2286   2.399       .  S
O2281     Zr2288   2.359   1_554  S
O2282     Zr2287   2.439       .  S
O2282     Zr2288   2.372   1_554  S
O2282      H2317   0.966       .  S
O2283     Zr2286   2.406       .  S
O2283     Zr2303   2.372       .  S
O2283      H2320   0.965       .  S
O2284     Zr2287   2.406       .  S
O2284     Zr2303   2.351       .  S
Zr2285     O2312   2.377       .  S
Zr2285     O2291   2.406       .  S
Zr2285     O2292   2.411       .  S
Zr2285     O2293   2.358       .  S
Zr2285     O2294   2.375       .  S
Zr2286     O2305   2.436       .  S
Zr2286     O2298   2.434   1_655  S
Zr2286     O2292   2.393       .  S
Zr2286     O2293   2.369       .  S
Zr2287     O2289   2.437       .  S
Zr2287     O2311   2.436   1_554  S
Zr2287     O2313   2.541       .  S
Zr2287     O2291   2.386       .  S
Zr2287     O2294   2.376       .  S
Zr2288     O2314   2.435       .  S
Zr2288     O2315   2.434       .  S
Zr2288     O2290   2.436       .  S
Zr2288     O2291   2.429   1_556  S
Zr2288     O2292   2.417   1_556  S
O2289      H2326   0.990       .  S
O2290      H2321   0.990       .  S
O2290      H2335   0.990   1_556  S
O2293     Zr2303   2.368       .  S
O2294     Zr2303   2.398       .  S
O2294      H2319   0.965       .  S
C2295      C4543   1.470   1_554  S
C2296      C2362   1.467       .  S
C2297      C4542   1.415       .  S
O2298      H2334   0.990       .  S
O2299      C2301   1.276       .  A
O2300      C2301   1.271       .  A
C2301      C2367   1.441       .  S
O2302     Zr2303   2.441       .  S
O2302      H2331   0.990       .  S
Zr2303     O2306   2.437       .  S
Zr2303     O2307   2.444       .  S
Zr2303     O2308   2.383       .  S
O2305      H2337   0.990       .  S
O2306      H2323   0.990       .  S
O2307      H2327   0.990       .  S
O2307      H2336   0.989       .  S
O2308      C2309   1.267       .  A
C2309      C4538   1.419   1_655  S
O2310      H2329   0.990   1_554  S
O2310      H2333   0.990       .  S
O2311      H2325   0.990       .  S
O2311      H2332   0.990       .  S
O2312      C2316   1.273       .  A
O2313      C2316   1.305       .  A
O2314      H2324   0.990       .  S
C2316      C4539   1.466   1_554  S
Zr2339     O2340   2.443       .  S
Zr2339     O2341   2.438       .  S
Zr2339     O2342   2.404       .  S
Zr2339     O2345   2.416       .  S
Zr2339     O2347   2.382       .  S
Zr2339     O2348   2.397       .  S
Zr2339     O2349   2.427       .  S
Zr2339     O2350   2.405       .  S
O2340      H2396   0.990       .  S
O2340      H2404   0.990       .  S
O2341      C2361   1.284       .  A
O2342      C2363   1.269       .  A
O2343     Zr2353   2.468       .  S
O2343      C2362   1.284       .  A
O2344     Zr2352   2.379       .  S
O2344      C2363   1.264       .  A
O2345      C2362   1.274       .  A
O2346     Zr2354   2.468       .  S
O2346      C2361   1.289       .  A
O2347     Zr2352   2.393       .  S
O2347     Zr2354   2.356       .  S
O2348     Zr2353   2.428       .  S
O2348     Zr2354   2.378       .  S
O2348      H2383   0.966       .  S
O2349     Zr2352   2.404       .  S
O2349     Zr2369   2.380       .  S
O2349      H2386   0.965       .  S
O2350     Zr2353   2.405       .  S
O2350     Zr2369   2.359       .  S
Zr2351     O2376   2.446       .  S
Zr2351     O2370   2.443       .  S
Zr2351     O2378   2.386       .  S
Zr2351     O2366   2.377       .  S
Zr2351     O2357   2.400       .  S
Zr2351     O2358   2.402       .  S
Zr2351     O2359   2.375       .  S
Zr2351     O2360   2.388       .  S
Zr2352     O2371   2.438       .  S
Zr2352     O2364   2.435       .  S
Zr2352     O2365   2.408       .  S
Zr2352     O2358   2.398       .  S
Zr2352     O2359   2.368       .  S
Zr2353     O2355   2.436       .  S
Zr2353     O2377   2.436       .  S
Zr2353     O2379   2.503       .  S
Zr2353     O2357   2.395       .  S
Zr2353     O2360   2.389       .  S
Zr2354     O2380   2.434       .  S
Zr2354     O2381   2.434       .  S
Zr2354     O2356   2.436       .  S
Zr2354     O2357   2.416       .  S
Zr2354     O2358   2.409       .  S
O2355      H2392   0.990       .  S
O2356      H2387   0.990       .  S
O2356      H2401   0.990       .  S
O2358      H2384   0.966       .  S
O2359     Zr2369   2.377       .  S
O2360     Zr2369   2.392       .  S
O2360      H2385   0.966       .  S
C2361      C4535   1.459       .  S
C2363      C4533   1.410       .  S
O2364      H2400   0.990       .  S
O2365      C2367   1.276       .  A
O2366      C2367   1.277       .  A
O2368     Zr2369   2.437   1_556  S
O2368      H2397   0.990   1_556  S
Zr2369     O2372   2.438   1_554  S
Zr2369     O2373   2.439       .  S
Zr2369     O2374   2.393       .  S
O2370      C2375   1.279       .  A
O2371      H2388   0.990       .  S
O2371      H2403   0.990       .  S
O2372      H2389   0.990       .  S
O2373      H2393   0.990       .  S
O2373      H2402   0.990       .  S
O2374      C2375   1.265       .  A
C2375      C4529   1.424       .  S
O2376      H2395   0.990       .  S
O2376      H2399   0.990       .  S
O2377      H2391   0.990       .  S
O2377      H2398   0.990       .  S
O2378      C2382   1.274       .  A
O2379      C2382   1.297       .  A
O2380      H2390   0.990       .  S
O2381      H2394   0.990       .  S
C2382      C4532   1.451       .  S
Zr2405     O2406   2.443       .  S
Zr2405     O2407   2.479       .  S
Zr2405     O2408   2.417       .  S
Zr2405     O2411   2.384       .  S
Zr2405     O2413   2.372       .  S
Zr2405     O2414   2.390       .  S
Zr2405     O2415   2.422       .  S
Zr2405     O2416   2.425       .  S
O2406      H2462   0.990       .  S
O2406      H2470   0.990       .  S
O2407      C2427   1.290       .  A
O2408      C2429   1.278       .  A
O2409     Zr2419   2.439       .  S
O2409      C2428   1.278       .  A
O2410     Zr2418   2.441       .  S
O2410      C2429   1.281       .  A
O2411      C2428   1.265       .  A
O2412     Zr2420   2.449       .  S
O2412      C2427   1.284       .  A
O2413     Zr2418   2.394       .  S
O2413     Zr2420   2.387       .  S
O2414     Zr2419   2.418       .  S
O2414     Zr2420   2.356       .  S
O2414      H2449   0.966       .  S
O2415     Zr2418   2.398       .  S
O2415     Zr2435   2.401       .  S
O2415      H2452   0.963       .  S
O2416     Zr2419   2.398       .  S
O2416     Zr2435   2.412       .  S
Zr2417     O2442   2.442       .  S
Zr2417     O2436   2.502       .  S
Zr2417     O2444   2.428       .  S
Zr2417     O2432   2.371       .  S
Zr2417     O2423   2.410       .  S
Zr2417     O2424   2.438       .  S
Zr2417     O2425   2.371       .  S
Zr2417     O2426   2.370       .  S
Zr2418     O2437   2.441       .  S
Zr2418     O2430   2.434       .  S
Zr2418     O2431   2.418       .  S
Zr2418     O2424   2.402       .  S
Zr2418     O2425   2.407       .  S
Zr2419     O2421   2.435       .  S
Zr2419     O2443   2.436       .  S
Zr2419     O2445   2.448       .  S
Zr2419     O2423   2.394       .  S
Zr2419     O2426   2.405       .  S
Zr2420     O2446   2.435       .  S
Zr2420     O2447   2.435       .  S
Zr2420     O2422   2.437       .  S
Zr2420     O2423   2.413       .  S
Zr2420     O2424   2.391       .  S
O2421      H2458   0.990       .  S
O2422      H2453   0.990       .  S
O2422      H2467   0.990       .  S
O2424      H2450   0.966       .  S
O2425     Zr2435   2.367       .  S
O2426     Zr2435   2.382       .  S
O2426      H2451   0.965       .  S
C2427      C4525   1.470       .  S
C2428      C4528   1.423       .  S
C2429      C4520   1.424       .  S
O2430      H2466   0.990       .  S
O2431      C2433   1.277       .  A
O2432      C2433   1.268       .  A
C2433      C4521   1.394       .  S
O2434     Zr2435   2.440       .  S
O2434      H2463   0.990       .  S
Zr2435     O2438   2.438       .  S
Zr2435     O2439   2.442       .  S
Zr2435     O2440   2.459       .  S
O2436      C2441   1.295       .  A
O2437      H2454   0.990       .  S
O2437      H2469   0.990       .  S
O2438      H2455   0.990       .  S
O2439      H2459   0.990       .  S
O2439      H2468   0.990       .  S
O2440      C2441   1.286       .  A
C2441      C4523   1.487       .  S
O2442      H2461   0.991       .  S
O2442      H2465   0.991       .  S
O2443      H2457   0.990       .  S
O2443      H2464   0.990       .  S
O2444      C2448   1.282       .  A
O2445      C2448   1.285       .  A
O2446      H2456   0.990       .  S
O2447      H2460   0.990       .  S
C2448      C4517   1.445       .  S
Zr2471     O2472   2.443       .  S
Zr2471     O2477   2.387       .  S
Zr2471     O2481   2.418       .  S
Zr2471     O2482   2.426       .  S
O2472      H2528   0.990       .  S
O2472      H2536   0.991       .  S
O2473      C2493   1.290       .  A
O2474      C2495   1.279       .  A
O2475     Zr2485   2.440       .  S
O2475      C2494   1.280       .  A
O2476     Zr2484   2.441       .  S
O2476      C2495   1.282       .  A
O2477      C2494   1.266       .  A
O2478     Zr2486   2.445       .  S
O2478      C2493   1.283       .  A
O2479     Zr2484   2.396       .  S
O2479     Zr2486   2.386       .  S
O2480     Zr2486   2.361       .  S
O2480      H2515   0.966       .  S
O2481     Zr2501   2.398       .  S
O2481      H2518   0.964       .  S
O2482     Zr2485   2.400       .  S
O2482     Zr2501   2.413       .  S
Zr2483     O2502   2.469       .  S
Zr2483     O2510   2.413   1_556  S
Zr2483     O2491   2.367       .  S
Zr2483     O2492   2.369       .  S
Zr2484     O2503   2.437       .  S
Zr2484     O2496   2.435       .  S
Zr2484     O2497   2.421       .  S
Zr2484     O2490   2.404       .  S
Zr2485     O2487   2.435       .  S
Zr2485     O2509   2.435       .  S
Zr2485     O2511   2.467   1_556  S
Zr2485     O2492   2.396       .  S
Zr2486     O2512   2.435       .  S
Zr2486     O2513   2.435   1_556  S
Zr2486     O2488   2.436       .  S
Zr2486     O2489   2.410       .  S
Zr2486     O2490   2.393       .  S
O2487      H2524   0.990       .  S
O2488      H2519   0.990       .  S
O2488      H2533   0.990       .  S
O2490      H2516   0.965       .  S
O2491     Zr2501   2.361       .  S
O2492     Zr2501   2.374       .  S
O2492      H2517   0.965       .  S
C2493      C4509   1.469       .  S
C2494      C4512   1.423       .  S
C2495      C4507   1.424       .  S
O2496      H2532   0.990       .  S
O2497      C2499   1.281       .  A
O2498      C2499   1.271       .  A
C2499      C4515   1.398   1_556  S
O2500     Zr2501   2.440       .  S
O2500      H2529   0.990       .  S
Zr2501     O2504   2.438       .  S
Zr2501     O2505   2.442       .  S
Zr2501     O2506   2.464       .  S
O2502      C2507   1.290       .  A
O2503      H2520   0.990       .  S
O2503      H2535   0.990       .  S
O2504      H2521   0.990       .  S
O2505      H2525   0.990       .  S
O2505      H2534   0.990       .  S
O2506      C2507   1.288       .  A
C2507      C4513   1.471       .  S
O2508      H2527   0.990       .  S
O2508      H2531   0.990       .  S
O2509      H2523   0.990       .  S
O2509      H2530   0.990       .  S
O2510      C2514   1.280       .  A
O2511      C2514   1.290       .  A
O2512      H2522   0.990       .  S
O2513      H2526   0.990       .  S
C2514      C4518   1.443       .  S
Zr2537     O2538   2.443       .  S
Zr2537     O2539   2.468       .  S
Zr2537     O2540   2.422       .  S
Zr2537     O2543   2.387       .  S
Zr2537     O2545   2.370       .  S
Zr2537     O2546   2.392       .  S
Zr2537     O2547   2.415       .  S
Zr2537     O2548   2.424       .  S
O2538      H2594   0.990       .  S
O2538      H2602   0.990       .  S
O2539      C2559   1.288       .  A
O2540      C2561   1.279       .  A
O2541     Zr2551   2.452       .  S
O2541      C2560   1.282       .  A
O2542     Zr2550   2.444       .  S
O2542      C2561   1.281       .  A
O2543      C2560   1.266       .  A
O2544     Zr2552   2.436       .  S
O2544      C2559   1.281       .  A
O2545     Zr2550   2.390       .  S
O2545     Zr2552   2.391       .  S
O2546     Zr2551   2.419       .  S
O2546     Zr2552   2.361       .  S
O2546      H2581   0.966       .  S
O2547     Zr2550   2.403       .  S
O2547     Zr2567   2.400       .  S
O2547      H2584   0.963       .  S
O2548     Zr2551   2.401       .  S
O2548     Zr2567   2.408       .  S
Zr2549     O2574   2.438       .  S
Zr2549     O2568   2.485       .  S
Zr2549     O2576   2.410       .  S
Zr2549     O2564   2.365       .  S
Zr2549     O2555   2.405       .  S
Zr2549     O2556   2.431       .  S
Zr2549     O2557   2.372       .  S
Zr2549     O2558   2.372       .  S
Zr2550     O2569   2.442       .  S
Zr2550     O2562   2.435       .  S
Zr2550     O2563   2.414       .  S
Zr2550     O2556   2.410       .  S
Zr2550     O2557   2.404       .  S
Zr2551     O2553   2.434       .  S
Zr2551     O2575   2.435       .  S
Zr2551     O2577   2.474       .  S
Zr2551     O2555   2.394       .  S
Zr2551     O2558   2.400       .  S
Zr2552     O2578   2.436       .  S
Zr2552     O2579   2.436       .  S
Zr2552     O2555   2.409       .  S
Zr2552     O2556   2.388       .  S
O2553      H2590   0.990       .  S
O2554      H2585   0.990       .  S
O2554      H2599   0.990       .  S
O2556      H2582   0.966       .  S
O2557     Zr2567   2.355       .  S
O2558     Zr2567   2.375       .  S
O2558      H2583   0.965       .  S
C2560      C4502   1.428       .  S
C2561      C4508   1.425       .  S
O2563      C2565   1.274       .  A
O2564      C2565   1.261       .  A
C2565      C4505   1.387       .  S
O2566     Zr2567   2.440       .  S
O2566      H2595   0.990       .  S
Zr2567     O2570   2.438       .  S
Zr2567     O2571   2.441       .  S
Zr2567     O2572   2.461       .  S
O2568      C2573   1.292       .  A
O2569      H2586   0.990       .  S
O2569      H2601   0.990       .  S
O2570      H2587   0.990       .  S
O2571      H2591   0.990       .  S
O2571      H2600   0.990       .  S
O2572      C2573   1.287       .  A
C2573      C4497   1.478       .  S
O2574      H2593   0.990       .  S
O2574      H2597   0.990       .  S
O2575      H2589   0.990       .  S
O2575      H2596   0.990       .  S
O2576      C2580   1.280       .  A
O2577      C2580   1.292       .  A
O2578      H2588   0.990       .  S
O2579      H2592   0.990       .  S
C2580      C4500   1.447       .  S
Zr2603     O2604   2.444       .  S
Zr2603     O2605   2.465       .  S
Zr2603     O2606   2.417       .  S
Zr2603     O2609   2.385       .  S
Zr2603     O2611   2.370       .  S
Zr2603     O2612   2.389       .  S
Zr2603     O2613   2.416       .  S
Zr2603     O2614   2.423       .  S
O2604      H2660   0.990       .  S
O2604      H2668   0.991       .  S
O2605      C2625   1.287       .  A
O2606      C2627   1.278       .  A
O2607     Zr2617   2.449       .  S
O2607      C2626   1.282       .  A
O2608     Zr2616   2.440       .  S
O2608      C2627   1.280       .  A
O2609      C2626   1.267       .  A
O2610     Zr2618   2.443       .  S
O2610      C2625   1.283       .  A
O2611     Zr2616   2.387       .  S
O2611     Zr2618   2.390       .  S
O2612     Zr2617   2.412       .  S
O2612     Zr2618   2.359       .  S
O2612      H2647   0.966       .  S
O2613     Zr2616   2.402       .  S
O2613     Zr2633   2.408       .  S
O2613      H2650   0.963       .  S
O2614     Zr2617   2.396       .  S
O2614     Zr2633   2.414       .  S
Zr2615     O2640   2.438       .  S
Zr2615     O2634   2.509       .  S
Zr2615     O2642   2.436       .  S
Zr2615     O2630   2.380       .  S
Zr2615     O2621   2.412       .  S
Zr2615     O2622   2.444       .  S
Zr2615     O2623   2.374       .  S
Zr2615     O2624   2.373       .  S
Zr2616     O2635   2.443       .  S
Zr2616     O2628   2.436       .  S
Zr2616     O2629   2.397       .  S
Zr2616     O2622   2.413       .  S
Zr2616     O2623   2.413       .  S
Zr2617     O2619   2.434       .  S
Zr2617     O2641   2.436       .  S
Zr2617     O2643   2.451       .  S
Zr2617     O2621   2.394       .  S
Zr2617     O2624   2.407       .  S
Zr2618     O2644   2.435       .  S
Zr2618     O2645   2.436       .  S
Zr2618     O2620   2.438       .  S
Zr2618     O2621   2.411       .  S
Zr2618     O2622   2.390       .  S
O2619      H2656   0.990       .  S
O2620      H2651   0.990       .  S
O2620      H2665   0.990       .  S
O2622      H2648   0.966       .  S
O2623     Zr2633   2.354       .  S
O2624     Zr2633   2.380       .  S
O2624      H2649   0.965       .  S
C2625      C4495   1.460       .  S
C2626      C4493   1.426       .  S
C2627      C4519   1.424       .  S
O2628      H2664   0.990       .  S
O2629      C2631   1.270       .  A
O2630      C2631   1.263       .  A
C2631      C4489   1.383       .  S
O2632     Zr2633   2.439       .  S
O2632      H2661   0.990       .  S
Zr2633     O2636   2.438       .  S
Zr2633     O2637   2.441       .  S
Zr2633     O2638   2.474       .  S
O2634      C2639   1.297       .  A
O2635      H2652   0.990       .  S
O2635      H2667   0.990       .  S
O2636      H2653   0.990       .  S
O2637      H2657   0.990       .  S
O2637      H2666   0.989       .  S
O2638      C2639   1.289       .  A
C2639      C4491   1.497       .  S
O2640      H2659   0.990       .  S
O2640      H2663   0.990       .  S
O2641      H2655   0.990       .  S
O2641      H2662   0.990       .  S
O2642      C2646   1.285       .  A
O2643      C2646   1.287       .  A
O2644      H2654   0.990       .  S
O2645      H2658   0.990       .  S
C2646      C4499   1.449       .  S
Zr2669     O2670   2.440       .  S
Zr2669     O2671   2.455       .  S
Zr2669     O2672   2.380       .  S
Zr2669     O2675   2.424       .  S
Zr2669     O2677   2.375       .  S
Zr2669     O2678   2.386       .  S
Zr2669     O2679   2.429       .  S
Zr2669     O2680   2.401       .  S
O2670      H2726   0.991       .  S
O2670      H2734   0.991       .  S
O2671      C2691   1.285       .  A
O2672      C2693   1.268       .  A
O2673     Zr2683   2.495       .  S
O2673      C2692   1.287       .  A
O2674     Zr2682   2.414       .  S
O2674      C2693   1.278       .  A
O2675      C2692   1.274       .  A
O2676     Zr2684   2.487       .  S
O2676      C2691   1.292       .  A
O2677     Zr2682   2.398       .  S
O2677     Zr2684   2.365       .  S
O2678     Zr2683   2.436       .  S
O2678     Zr2684   2.382       .  S
O2678      H2713   0.966       .  S
O2679     Zr2682   2.406       .  S
O2679     Zr2699   2.359       .  S
O2679      H2716   0.963       .  S
O2680     Zr2683   2.396       .  S
O2680     Zr2699   2.353       .  S
Zr2681     O2706   2.439       .  S
Zr2681     O2700   2.455       .  S
Zr2681     O2708   2.389       .  S
Zr2681     O2696   2.401       .  S
Zr2681     O2687   2.412       .  S
Zr2681     O2688   2.410       .  S
Zr2681     O2689   2.366       .  S
Zr2681     O2690   2.396       .  S
Zr2682     O2701   2.440       .  S
Zr2682     O2694   2.434       .  S
Zr2682     O2695   2.453       .  S
Zr2682     O2688   2.390       .  S
Zr2682     O2689   2.365       .  S
Zr2683     O2685   2.437       .  S
Zr2683     O2707   2.438       .  S
Zr2683     O2709   2.507       .  S
Zr2683     O2687   2.404       .  S
Zr2683     O2690   2.393       .  S
Zr2684     O2710   2.435       .  S
Zr2684     O2711   2.434       .  S
Zr2684     O2686   2.436       .  S
Zr2684     O2687   2.429       .  S
Zr2684     O2688   2.421       .  S
O2685      H2722   0.990       .  S
O2686      H2717   0.990       .  S
O2686      H2731   0.990       .  S
O2688      H2714   0.966       .  S
O2689     Zr2699   2.374       .  S
O2690     Zr2699   2.386       .  S
O2690      H2715   0.966       .  S
C2691      C4498   1.478       .  S
C2692      C3088   1.483       .  S
C2693      C4490   1.388       .  S
O2694      H2730   0.990       .  S
O2695      C2697   1.286       .  A
O2696      C2697   1.280       .  A
C2697      C3093   1.466       .  S
O2698     Zr2699   2.439       .  S
O2698      H2727   0.990       .  S
Zr2699     O2702   2.437       .  S
Zr2699     O2703   2.439       .  S
Zr2699     O2704   2.383       .  S
O2700      C2705   1.280       .  A
O2701      H2718   0.990       .  S
O2701      H2733   0.990       .  S
O2702      H2719   0.990       .  S
O2703      H2723   0.990       .  S
O2703      H2732   0.990       .  S
O2704      C2705   1.262       .  A
C2705      C4486   1.425       .  S
O2706      H2725   0.990       .  S
O2706      H2729   0.990       .  S
O2707      H2721   0.990       .  S
O2707      H2728   0.990       .  S
O2708      C2712   1.275       .  A
O2709      C2712   1.298       .  A
O2710      H2720   0.990       .  S
O2711      H2724   0.990       .  S
C2712      C4487   1.452       .  S
Zr2735     O2736   2.440       .  S
Zr2735     O2737   2.445       .  S
Zr2735     O2738   2.412       .  S
Zr2735     O2741   2.398       .  S
Zr2735     O2743   2.391       .  S
Zr2735     O2744   2.374       .  S
Zr2735     O2745   2.408       .  S
Zr2735     O2746   2.381       .  S
O2736      H2792   0.984       .  S
O2736      H2800   0.989       .  S
O2737      C2757   1.286       .  A
O2738      C2759   1.275       .  A
O2739     Zr2749   2.390       .  S
O2739      C2758   1.274       .  A
O2740     Zr2748   2.448       .  S
O2740      C2759   1.281       .  A
O2741      C2758   1.276       .  A
O2742     Zr2750   2.472       .  S
O2742      C2757   1.290       .  A
O2743     Zr2748   2.418       .  S
O2743     Zr2750   2.377       .  S
O2744     Zr2749   2.360       .  S
O2744     Zr2750   2.363       .  S
O2744      H2779   0.964       .  S
O2745     Zr2748   2.438       .  S
O2745     Zr2765   2.346       .  S
O2745      H2782   0.963       .  S
O2746     Zr2749   2.376       .  S
O2746     Zr2765   2.372       .  S
Zr2747     O2766   2.455       .  S
Zr2747     O2762   2.384       .  S
Zr2747     O2753   2.405       .  S
Zr2747     O2754   2.405       .  S
Zr2747     O2755   2.372       .  S
Zr2747     O2756   2.379       .  S
Zr2748     O2767   2.437       .  S
Zr2748     O2760   2.434       .  S
Zr2748     O2761   2.511       .  S
Zr2748     O2754   2.393       .  S
Zr2748     O2755   2.384       .  S
Zr2749     O2751   2.436       .  S
Zr2749     O2773   2.435       .  S
Zr2749     O2753   2.386       .  S
Zr2749     O2756   2.372       .  S
Zr2750     O2776   2.435       .  S
Zr2750     O2777   2.435       .  S
Zr2750     O2752   2.436       .  S
Zr2750     O2753   2.411       .  S
Zr2750     O2754   2.417       .  S
O2751      H2788   0.990       .  S
O2752      H2783   0.990       .  S
O2752      H2797   0.990       .  S
O2754      H2780   0.966       .  S
O2755     Zr2765   2.390       .  S
O2756     Zr2765   2.354       .  S
O2756      H2781   0.964       .  S
C2757      C4483   1.455       .  S
C2758      C4482   1.396       .  S
C2759      C3155   1.456       .  S
O2760      H2796   0.990       .  S
O2761      C2763   1.299       .  A
O2762      C2763   1.274       .  A
C2763      C4504   1.453       .  S
O2764     Zr2765   2.440       .  S
O2764      H2793   0.990       .  S
Zr2765     O2768   2.437       .  S
Zr2765     O2769   2.437       .  S
Zr2765     O2770   2.381       .  S
O2766      C2771   1.284       .  A
O2767      H2784   0.990       .  S
O2767      H2799   0.990       .  S
O2768      H2785   0.990       .  S
O2769      H2789   0.990       .  S
O2769      H2798   0.990       .  S
O2770      C2771   1.265       .  A
C2771      C4511   1.419       .  S
O2772      H2791   0.990       .  S
O2772      H2795   0.990       .  S
O2773      H2794   0.990       .  S
O2774      C2778   1.279       .  A
O2775      C2778   1.275       .  A
O2776      H2786   0.990       .  S
O2777      H2790   0.990       .  S
C2778      C3174   1.423       .  S
Zr2801     O2802   2.440       .  S
Zr2801     O2803   2.449       .  S
Zr2801     O2804   2.398       .  S
Zr2801     O2807   2.429       .  S
Zr2801     O2809   2.387       .  S
Zr2801     O2810   2.396       .  S
Zr2801     O2811   2.436       .  S
Zr2801     O2812   2.405       .  S
O2802      H2858   0.990       .  S
O2802      H2866   0.991       .  S
O2803      C2823   1.285       .  A
O2804      C2825   1.264       .  A
O2805     Zr2815   2.487       .  S
O2805      C2824   1.286       .  A
O2806     Zr2814   2.385       .  S
O2806      C2825   1.263       .  A
O2807      C2824   1.276       .  A
O2808     Zr2816   2.480       .  S
O2808      C2823   1.291   1_556  A
O2809     Zr2814   2.400       .  S
O2809     Zr2816   2.351   1_554  S
O2810     Zr2815   2.438       .  S
O2810     Zr2816   2.384   1_554  S
O2810      H2845   0.966       .  S
O2811     Zr2814   2.420       .  S
O2811     Zr2831   2.376       .  S
O2811      H2848   0.964       .  S
O2812     Zr2815   2.405       .  S
O2812     Zr2831   2.356       .  S
Zr2813     O2838   2.443       .  S
Zr2813     O2832   2.449       .  S
Zr2813     O2840   2.378       .  S
Zr2813     O2828   2.373       .  S
Zr2813     O2819   2.402       .  S
Zr2813     O2820   2.404       .  S
Zr2813     O2821   2.368       .  S
Zr2813     O2822   2.389       .  S
Zr2814     O2833   2.443       .  S
Zr2814     O2826   2.434       .  S
Zr2814     O2827   2.430       .  S
Zr2814     O2820   2.396       .  S
Zr2814     O2821   2.361       .  S
Zr2815     O2817   2.436       .  S
Zr2815     O2839   2.437   1_554  S
Zr2815     O2841   2.523       .  S
Zr2815     O2819   2.398       .  S
Zr2815     O2822   2.390       .  S
Zr2816     O2842   2.435       .  S
Zr2816     O2843   2.434       .  S
Zr2816     O2818   2.436       .  S
Zr2816     O2819   2.421   1_556  S
Zr2816     O2820   2.419   1_556  S
O2817      H2854   0.990       .  S
O2818      H2849   0.990       .  S
O2818      H2863   0.990       .  S
O2820      H2846   0.966       .  S
O2821     Zr2831   2.373       .  S
O2822     Zr2831   2.393       .  S
O2822      H2847   0.966       .  S
C2823      C4514   1.471   1_554  S
C2824      C2890   1.481       .  S
C2825      C4522   1.404       .  S
O2826      H2862   0.990       .  S
O2827      C2829   1.280       .  A
O2828      C2829   1.275       .  A
C2829      C2895   1.449       .  S
O2830     Zr2831   2.437       .  S
O2830      H2859   0.990       .  S
Zr2831     O2834   2.438       .  S
Zr2831     O2835   2.439       .  S
Zr2831     O2836   2.392       .  S
O2832      C2837   1.280       .  A
O2833      H2850   0.990       .  S
O2833      H2865   0.988       .  S
O2834      H2851   0.990       .  S
O2835      H2855   0.990       .  S
O2835      H2864   0.990       .  S
O2836      C2837   1.264       .  A
C2837      C4478   1.423       .  S
O2838      H2857   0.990   1_554  S
O2838      H2861   0.990       .  S
O2839      H2853   0.990       .  S
O2839      H2860   0.990       .  S
O2840      C2844   1.273       .  A
O2841      C2844   1.301       .  A
O2842      H2852   0.990       .  S
O2843      H2856   0.990       .  S
C2844      C4480   1.457   1_554  S
Zr2867     O2870   2.411       .  S
Zr2867     O2875   2.377       .  S
Zr2867     O2876   2.404       .  S
Zr2867     O2877   2.422       .  S
Zr2867     O2878   2.408       .  S
O2868      H2924   0.990       .  S
O2868      H2932   0.990       .  S
O2870      C2891   1.271       .  A
O2871      C2890   1.290       .  A
O2872     Zr2880   2.379       .  S
O2872      C2891   1.265       .  A
O2873      C2890   1.273       .  A
O2874     Zr2882   2.514       .  S
O2874      C2889   1.298   1_655  A
O2875     Zr2880   2.398       .  S
O2875     Zr2882   2.349       .  S
O2876     Zr2881   2.443       .  S
O2876     Zr2882   2.373       .  S
O2876      H2911   0.966   1_655  S
O2877     Zr2880   2.405       .  S
O2877     Zr2897   2.377       .  S
O2877      H2914   0.965       .  S
O2878     Zr2881   2.412       .  S
O2878     Zr2897   2.350       .  S
Zr2879     O2904   2.442       .  S
Zr2879     O2898   2.463       .  S
Zr2879     O2906   2.384       .  S
Zr2879     O2894   2.379       .  S
Zr2879     O2885   2.411       .  S
Zr2879     O2886   2.413       .  S
Zr2879     O2887   2.370       .  S
Zr2879     O2888   2.390       .  S
Zr2880     O2899   2.437       .  S
Zr2880     O2892   2.434       .  S
Zr2880     O2893   2.425       .  S
Zr2880     O2886   2.391       .  S
Zr2880     O2887   2.367       .  S
Zr2881     O2883   2.436   1_655  S
Zr2881     O2905   2.436   1_655  S
Zr2881     O2907   2.562       .  S
Zr2881     O2885   2.395       .  S
Zr2881     O2888   2.383       .  S
Zr2882     O2908   2.435       .  S
Zr2882     O2909   2.434       .  S
Zr2882     O2884   2.436       .  S
Zr2882     O2885   2.436       .  S
Zr2882     O2886   2.427       .  S
O2884      H2915   0.990       .  S
O2884      H2929   0.990       .  S
O2886      H2912   0.966       .  S
O2887     Zr2897   2.379       .  S
O2888     Zr2897   2.398       .  S
O2888      H2913   0.966       .  S
C2891      C4516   1.405       .  S
O2892      H2928   0.990       .  S
O2893      C2895   1.279       .  A
O2894      C2895   1.276       .  A
O2896     Zr2897   2.437   1_556  S
O2896      H2925   0.990   1_656  S
Zr2897     O2900   2.437   1_554  S
Zr2897     O2901   2.438       .  S
Zr2897     O2902   2.382       .  S
O2898      C2903   1.282       .  A
O2899      H2916   0.990       .  S
O2899      H2931   0.990       .  S
O2900      H2917   0.990       .  S
O2901      H2921   0.990       .  S
O2901      H2930   0.990       .  S
O2902      C2903   1.262       .  A
C2903      C4474   1.432       .  S
O2904      H2923   0.990       .  S
O2904      H2927   0.990       .  S
O2906      C2910   1.273       .  A
O2907      C2910   1.309       .  A
O2908      H2918   0.990       .  S
O2909      H2922   0.990       .  S
C2910      C4475   1.479       .  S
Zr2933     O2934   2.430       .  S
Zr2933     O2935   2.444       .  S
Zr2933     O2936   2.424       .  S
Zr2933     O2939   2.415       .  S
Zr2933     O2941   2.393       .  S
Zr2933     O2942   2.371       .  S
Zr2933     O2943   2.411       .  S
Zr2933     O2944   2.383       .  S
O2934      H2990   0.985       .  S
O2934      H2998   0.989       .  S
O2935      C2955   1.285       .  A
O2936      C2957   1.276       .  A
O2937     Zr2947   2.382       .  S
O2937      C2956   1.274       .  A
O2938     Zr2946   2.438       .  S
O2938      C2957   1.279       .  A
O2939      C2956   1.281       .  A
O2940     Zr2948   2.494       .  S
O2940      C2955   1.294       .  A
O2941     Zr2946   2.430       .  S
O2941     Zr2948   2.374       .  S
O2942     Zr2947   2.375       .  S
O2942     Zr2948   2.359       .  S
O2942      H2977   0.965       .  S
O2943     Zr2946   2.449       .  S
O2943     Zr2963   2.342       .  S
O2943      H2980   0.963       .  S
O2944     Zr2947   2.380       .  S
O2944     Zr2963   2.373       .  S
Zr2945     O2970   2.445       .  S
Zr2945     O2964   2.466       .  S
Zr2945     O2972   2.364       .  S
Zr2945     O2960   2.386       .  S
Zr2945     O2951   2.408       .  S
Zr2945     O2952   2.404       .  S
Zr2945     O2953   2.365       .  S
Zr2945     O2954   2.376       .  S
Zr2946     O2965   2.438       .  S
Zr2946     O2958   2.434       .  S
Zr2946     O2959   2.529       .  S
Zr2946     O2952   2.387       .  S
Zr2946     O2953   2.380       .  S
Zr2947     O2949   2.437       .  S
Zr2947     O2971   2.436       .  S
Zr2947     O2973   2.405       .  S
Zr2947     O2951   2.385       .  S
Zr2947     O2954   2.370       .  S
Zr2948     O2974   2.435       .  S
Zr2948     O2975   2.434       .  S
Zr2948     O2950   2.435       .  S
Zr2948     O2951   2.415       .  S
Zr2948     O2952   2.430       .  S
O2949      H2986   0.990       .  S
O2950      H2981   0.990       .  S
O2950      H2995   0.990       .  S
O2952      H2978   0.966       .  S
O2953     Zr2963   2.397       .  S
O2954     Zr2963   2.356       .  S
O2954      H2979   0.965       .  S
C2955      C4472   1.471       .  S
C2956      C4470   1.403       .  S
C2957      C3023   1.456       .  S
O2958      H2994   0.990       .  S
O2959      C2961   1.302       .  A
O2960      C2961   1.273       .  A
C2961      C4526   1.465       .  S
O2962     Zr2963   2.441       .  S
O2962      H2991   0.990       .  S
Zr2963     O2966   2.438       .  S
Zr2963     O2967   2.437       .  S
Zr2963     O2968   2.374       .  S
O2964      C2969   1.287       .  A
O2965      H2982   0.990       .  S
O2965      H2997   0.990       .  S
O2966      H2983   0.990       .  S
O2967      H2987   0.990       .  S
O2967      H2996   0.990       .  S
O2968      C2969   1.266       .  A
C2969      C4494   1.422       .  S
O2970      H2989   0.990       .  S
O2970      H2993   0.990       .  S
O2971      H2985   0.990       .  S
O2971      H2992   0.990       .  S
O2972      C2976   1.275       .  A
O2973      C2976   1.277       .  A
O2974      H2984   0.990       .  S
O2975      H2988   0.990       .  S
C2976      C3042   1.425       .  S
Zr2999     O3001   2.433       .  S
Zr2999     O3005   2.391       .  S
Zr2999     O3007   2.387       .  S
Zr2999     O3008   2.371       .  S
Zr2999     O3009   2.403       .  S
Zr2999     O3010   2.382       .  S
O3000      H3056   0.986       .  S
O3000      H3064   0.989       .  S
O3001      C3021   1.282       .  A
O3002      C3023   1.273       .  A
O3003     Zr3013   2.388       .  S
O3003      C3022   1.275       .  A
O3004      C3023   1.281       .  A
O3005      C3022   1.275       .  A
O3006     Zr3014   2.467       .  S
O3006      C3021   1.289       .  A
O3007     Zr3012   2.420       .  S
O3007     Zr3014   2.379       .  S
O3008     Zr3013   2.365       .  S
O3008     Zr3014   2.363       .  S
O3008      H3043   0.965       .  S
O3009     Zr3012   2.440       .  S
O3009     Zr3029   2.348       .  S
O3009      H3046   0.963       .  S
O3010     Zr3013   2.378       .  S
O3010     Zr3029   2.374       .  S
Zr3011     O3036   2.446       .  S
Zr3011     O3030   2.457       .  S
Zr3011     O3038   2.375       .  S
Zr3011     O3026   2.388       .  S
Zr3011     O3017   2.402       .  S
Zr3011     O3018   2.401       .  S
Zr3011     O3019   2.371       .  S
Zr3011     O3020   2.381       .  S
Zr3012     O3031   2.437       .  S
Zr3012     O3024   2.434       .  S
Zr3012     O3025   2.510       .  S
Zr3012     O3018   2.394       .  S
Zr3012     O3019   2.385       .  S
Zr3013     O3015   2.437       .  S
Zr3013     O3037   2.436       .  S
Zr3013     O3039   2.396       .  S
Zr3013     O3017   2.389       .  S
Zr3013     O3020   2.369       .  S
Zr3014     O3040   2.435       .  S
Zr3014     O3041   2.434       .  S
Zr3014     O3016   2.435       .  S
Zr3014     O3017   2.405       .  S
Zr3014     O3018   2.416       .  S
O3015      H3052   0.990       .  S
O3016      H3047   0.990       .  S
O3016      H3061   0.990       .  S
O3018      H3044   0.966       .  S
O3019     Zr3029   2.394       .  S
O3020     Zr3029   2.359       .  S
O3020      H3045   0.964       .  S
C3022      C4465   1.394       .  S
O3024      H3060   0.990       .  S
O3025      C3027   1.298       .  A
O3026      C3027   1.274       .  A
C3027      C4496   1.455       .  S
O3028     Zr3029   2.441       .  S
O3028      H3057   0.990       .  S
Zr3029     O3032   2.437       .  S
Zr3029     O3033   2.437       .  S
Zr3029     O3034   2.379       .  S
O3030      C3035   1.284       .  A
O3032      H3049   0.990       .  S
O3033      H3053   0.990       .  S
O3033      H3062   0.990       .  S
O3034      C3035   1.264       .  A
C3035      C4527   1.418       .  S
O3036      H3055   0.990       .  S
O3036      H3059   0.990       .  S
O3037      H3051   0.990       .  S
O3037      H3058   0.990       .  S
O3038      C3042   1.278       .  A
O3039      C3042   1.275       .  A
O3040      H3050   0.990       .  S
O3041      H3054   0.990       .  S
Zr3065     O3066   2.450       .  S
Zr3065     O3067   2.453       .  S
Zr3065     O3068   2.384       .  S
Zr3065     O3071   2.419       .  S
Zr3065     O3073   2.376       .  S
Zr3065     O3074   2.393       .  S
Zr3065     O3075   2.401       .  S
Zr3065     O3076   2.395       .  S
O3066      H3122   0.989       .  S
O3066      H3130   0.990       .  S
O3067      C3087   1.286       .  A
O3068      C3089   1.272       .  A
O3069     Zr3079   2.504       .  S
O3069      C3088   1.291       .  A
O3070     Zr3078   2.401       .  S
O3070      C3089   1.277       .  A
O3071      C3088   1.275       .  A
O3072     Zr3080   2.531       .  S
O3072      C3087   1.302       .  A
O3073     Zr3078   2.391       .  S
O3073     Zr3080   2.354       .  S
O3074     Zr3079   2.437       .  S
O3074     Zr3080   2.371       .  S
O3074      H3109   0.966       .  S
O3075     Zr3078   2.404       .  S
O3075     Zr3095   2.363       .  S
O3075      H3112   0.964       .  S
O3076     Zr3079   2.394       .  S
O3076     Zr3095   2.353       .  S
Zr3077     O3104   2.391   1_655  S
Zr3077     O3083   2.422       .  S
Zr3077     O3084   2.421       .  S
Zr3077     O3085   2.358       .  S
Zr3077     O3086   2.387       .  S
Zr3078     O3097   2.440   1_655  S
Zr3078     O3084   2.385       .  S
Zr3078     O3085   2.371       .  S
Zr3079     O3081   2.436       .  S
Zr3079     O3103   2.437       .  S
Zr3079     O3105   2.543       .  S
Zr3079     O3083   2.398       .  S
Zr3079     O3086   2.387       .  S
Zr3080     O3106   2.435       .  S
Zr3080     O3107   2.435       .  S
Zr3080     O3082   2.436       .  S
Zr3080     O3083   2.445       .  S
Zr3080     O3084   2.434       .  S
O3081      H3118   0.990       .  S
O3082      H3113   0.990       .  S
O3082      H3127   0.990       .  S
O3085     Zr3095   2.378       .  S
O3086     Zr3095   2.400       .  S
O3086      H3111   0.965       .  S
C3087      C4492   1.497       .  S
C3089      C4506   1.390       .  S
O3091      C3093   1.284       .  A
O3092      C3093   1.280       .  A
O3094     Zr3095   2.440       .  S
O3094      H3123   0.990       .  S
Zr3095     O3098   2.436       .  S
Zr3095     O3099   2.445       .  S
Zr3095     O3100   2.373       .  S
O3096      C3101   1.287       .  A
O3097      H3129   0.990   1_455  S
O3098      H3115   0.990       .  S
O3099      H3119   0.990       .  S
O3099      H3128   0.988       .  S
C3101      C4462   1.433       .  S
O3102      H3121   0.990       .  S
O3102      H3125   0.990       .  S
O3103      H3117   0.990       .  S
O3103      H3124   0.990       .  S
O3104      C3108   1.275   1_455  A
O3105      C3108   1.305       .  A
O3106      H3116   0.990       .  S
Zr3131     O3132   2.438       .  S
Zr3131     O3133   2.460       .  S
Zr3131     O3134   2.422       .  S
Zr3131     O3137   2.429       .  S
Zr3131     O3139   2.394       .  S
Zr3131     O3140   2.379       .  S
Zr3131     O3141   2.418       .  S
Zr3131     O3142   2.373       .  S
O3132      H3188   0.984       .  S
O3132      H3196   0.990       .  S
O3133      C3153   1.288       .  A
O3134      C3155   1.276       .  A
O3135     Zr3145   2.383       .  S
O3135      C3154   1.272       .  A
O3136     Zr3144   2.444       .  S
O3136      C3155   1.280       .  A
O3137      C3154   1.283       .  A
O3138     Zr3146   2.493       .  S
O3138      C3153   1.294       .  A
O3139     Zr3144   2.428       .  S
O3139     Zr3146   2.376       .  S
O3140     Zr3145   2.378       .  S
O3140     Zr3146   2.371       .  S
O3140      H3175   0.965       .  S
O3141     Zr3144   2.449       .  S
O3141     Zr3161   2.345       .  S
O3141      H3178   0.963       .  S
O3142     Zr3145   2.376       .  S
O3142     Zr3161   2.359       .  S
Zr3143     O3168   2.441       .  S
Zr3143     O3162   2.470       .  S
Zr3143     O3170   2.370       .  S
Zr3143     O3158   2.375       .  S
Zr3143     O3149   2.414       .  S
Zr3143     O3150   2.408       .  S
Zr3143     O3151   2.369       .  S
Zr3143     O3152   2.379       .  S
Zr3144     O3163   2.439       .  S
Zr3144     O3156   2.434       .  S
Zr3144     O3157   2.536       .  S
Zr3144     O3150   2.389       .  S
Zr3144     O3151   2.379       .  S
Zr3145     O3147   2.437       .  S
Zr3145     O3169   2.434       .  S
Zr3145     O3171   2.401       .  S
Zr3145     O3149   2.382       .  S
Zr3145     O3152   2.376       .  S
Zr3146     O3172   2.435       .  S
Zr3146     O3173   2.435       .  S
Zr3146     O3148   2.436       .  S
Zr3146     O3149   2.421       .  S
Zr3146     O3150   2.433       .  S
O3147      H3184   0.990       .  S
O3148      H3179   0.990       .  S
O3148      H3193   0.990       .  S
O3150      H3176   0.966       .  S
O3151     Zr3161   2.394       .  S
O3152     Zr3161   2.359       .  S
O3152      H3177   0.964       .  S
C3153      C4460   1.477       .  S
C3154      C4457   1.402       .  S
O3156      H3192   0.990       .  S
O3157      C3159   1.303       .  A
O3158      C3159   1.272       .  A
C3159      C4510   1.464       .  S
O3160     Zr3161   2.441       .  S
O3160      H3189   0.990       .  S
Zr3161     O3164   2.437       .  S
Zr3161     O3165   2.437       .  S
Zr3161     O3166   2.375       .  S
O3162      C3167   1.286       .  A
O3163      H3180   0.990       .  S
O3163      H3195   0.990       .  S
O3164      H3181   0.990       .  S
O3165      H3185   0.990       .  S
O3165      H3194   0.990       .  S
O3166      C3167   1.263       .  A
C3167      C4501   1.424       .  S
O3168      H3187   0.991       .  S
O3168      H3191   0.990       .  S
O3169      H3183   0.990       .  S
O3169      H3190   0.990       .  S
O3170      C3174   1.275       .  A
O3171      C3174   1.275       .  A
O3172      H3182   0.990       .  S
O3173      H3186   0.990       .  S
Zr3197     O3198   2.442       .  S
Zr3197     O3203   2.386       .  S
Zr3197     O3206   2.389       .  S
Zr3197     O3207   2.426       .  S
Zr3197     O3208   2.414       .  S
O3198      H3254   0.990       .  S
O3198      H3262   0.990       .  S
O3199      C3219   1.291       .  A
O3200      C3221   1.277       .  A
O3201     Zr3211   2.388       .  S
O3201      C3220   1.262       .  A
O3202     Zr3210   2.459       .  S
O3202      C3221   1.286       .  A
O3203      C3220   1.264       .  A
O3204     Zr3212   2.463       .  S
O3204      C3219   1.287       .  A
O3205     Zr3210   2.401       .  S
O3205     Zr3212   2.382       .  S
O3206     Zr3211   2.416       .  S
O3206      H3241   0.965       .  S
O3207     Zr3227   2.412       .  S
O3207      H3244   0.965       .  S
O3208     Zr3211   2.410       .  S
O3208     Zr3227   2.387       .  S
Zr3209     O3228   2.459       .  S
Zr3209     O3236   2.399       .  S
Zr3209     O3215   2.393       .  S
Zr3209     O3217   2.373       .  S
Zr3209     O3218   2.366       .  S
Zr3210     O3229   2.441       .  S
Zr3210     O3222   2.435       .  S
Zr3210     O3223   2.459       .  S
Zr3210     O3216   2.396       .  S
Zr3211     O3213   2.434       .  S
Zr3211     O3235   2.437       .  S
Zr3211     O3237   2.402       .  S
Zr3211     O3215   2.392       .  S
Zr3211     O3218   2.387       .  S
Zr3212     O3238   2.435       .  S
Zr3212     O3239   2.435       .  S
Zr3212     O3214   2.437       .  S
Zr3212     O3216   2.417       .  S
O3213      H3250   0.990       .  S
O3214      H3245   0.990       .  S
O3214      H3259   0.990       .  S
O3216      H3242   0.966       .  S
O3217     Zr3227   2.359       .  S
O3218     Zr3227   2.387       .  S
O3218      H3243   0.966       .  S
C3219      C4471   1.472       .  S
C3220      C4466   1.398       .  S
C3221      C4455   1.433       .  S
O3222      H3258   0.990       .  S
O3223      C3225   1.288   1_655  A
O3224      C3225   1.270       .  A
C3225      C4537   1.419       .  S
O3226     Zr3227   2.439       .  S
O3226      H3255   0.990       .  S
Zr3227     O3230   2.437       .  S
Zr3227     O3231   2.438       .  S
Zr3227     O3232   2.443       .  S
O3228      C3233   1.288       .  A
O3229      H3246   0.990       .  S
O3230      H3247   0.990       .  S
O3231      H3251   0.990       .  S
O3231      H3260   0.990       .  S
O3232      C3233   1.283       .  A
C3233      C4531   1.456       .  S
O3234      H3253   0.991       .  S
O3234      H3257   0.990       .  S
O3235      H3249   0.990       .  S
O3235      H3256   0.990       .  S
O3236      C3240   1.276       .  A
O3237      C3240   1.275       .  A
O3238      H3248   0.990       .  S
O3239      H3252   0.990       .  S
C3240      C4453   1.410       .  S
Zr3263     O3264   2.442       .  S
Zr3263     O3265   2.481       .  S
Zr3263     O3266   2.408       .  S
Zr3263     O3269   2.381       .  S
Zr3263     O3271   2.376       .  S
Zr3263     O3272   2.391       .  S
Zr3263     O3273   2.425       .  S
Zr3263     O3274   2.417       .  S
O3264      H3320   0.990       .  S
O3264      H3328   0.990       .  S
O3265      C3285   1.291       .  A
O3266      C3287   1.277       .  A
O3267     Zr3277   2.399       .  S
O3267      C3286   1.264       .  A
O3268     Zr3276   2.451       .  S
O3268      C3287   1.284       .  A
O3269      C3286   1.263       .  A
O3270     Zr3278   2.473       .  S
O3270      C3285   1.289       .  A
O3271     Zr3276   2.402       .  S
O3271     Zr3278   2.376       .  S
O3272     Zr3277   2.419       .  S
O3272     Zr3278   2.367       .  S
O3272      H3307   0.965       .  S
O3273     Zr3276   2.405       .  S
O3273     Zr3293   2.416       .  S
O3273      H3310   0.965       .  S
O3274     Zr3277   2.402       .  S
O3274     Zr3293   2.391       .  S
Zr3275     O3300   2.443   1_556  S
Zr3275     O3294   2.490       .  S
Zr3275     O3302   2.426   1_556  S
Zr3275     O3290   2.389       .  S
Zr3275     O3281   2.399       .  S
Zr3275     O3282   2.437       .  S
Zr3275     O3283   2.376       .  S
Zr3275     O3284   2.376       .  S
Zr3276     O3295   2.442       .  S
Zr3276     O3288   2.436       .  S
Zr3276     O3289   2.451       .  S
Zr3276     O3282   2.400       .  S
Zr3276     O3283   2.399       .  S
Zr3277     O3279   2.435       .  S
Zr3277     O3301   2.440       .  S
Zr3277     O3303   2.406   1_556  S
Zr3277     O3281   2.387       .  S
Zr3277     O3284   2.397       .  S
Zr3278     O3304   2.435       .  S
Zr3278     O3305   2.436   1_556  S
Zr3278     O3280   2.438       .  S
Zr3278     O3281   2.404       .  S
Zr3278     O3282   2.423       .  S
O3279      H3316   0.990       .  S
O3280      H3311   0.990       .  S
O3280      H3325   0.990       .  S
O3282      H3308   0.966       .  S
O3283     Zr3293   2.360       .  S
O3284     Zr3293   2.397       .  S
O3284      H3309   0.966       .  S
C3285      C4459   1.477       .  S
C3286      C4481   1.400       .  S
C3287      C4451   1.428       .  S
O3288      H3324   0.990       .  S
O3289      C3291   1.282       .  A
O3290      C3291   1.268       .  A
C3291      C4530   1.424       .  S
O3292     Zr3293   2.439       .  S
O3292      H3321   0.990       .  S
Zr3293     O3296   2.437       .  S
Zr3293     O3297   2.438       .  S
Zr3293     O3298   2.442       .  S
O3294      C3299   1.293       .  A
O3295      H3312   0.990       .  S
O3295      H3327   0.990       .  S
O3296      H3313   0.990       .  S
O3297      H3317   0.990       .  S
O3297      H3326   0.990       .  S
O3298      C3299   1.283       .  A
C3299      C4540   1.471       .  S
O3300      H3319   0.990       .  S
O3300      H3323   0.991       .  S
O3301      H3315   0.990       .  S
O3301      H3322   0.991       .  S
O3302      C3306   1.280       .  A
O3303      C3306   1.275       .  A
O3304      H3314   0.990       .  S
O3305      H3318   0.990       .  S
C3306      C4454   1.413       .  S
Zr3329     O3330   2.440       .  S
Zr3329     O3331   2.454       .  S
Zr3329     O3332   2.420       .  S
Zr3329     O3335   2.371       .  S
Zr3329     O3337   2.372       .  S
Zr3329     O3338   2.378       .  S
Zr3329     O3339   2.402       .  S
Zr3329     O3340   2.407       .  S
O3330      H3386   0.990       .  S
O3330      H3394   0.990       .  S
O3331      C3351   1.287       .  A
O3332      C3353   1.280       .  A
O3333     Zr3343   2.417       .  S
O3333      C3352   1.278       .  A
O3334     Zr3342   2.434       .  S
O3334      C3353   1.280       .  A
O3335      C3352   1.273       .  A
O3336     Zr3344   2.451       .  S
O3336      C3351   1.285       .  A
O3337     Zr3342   2.397       .  S
O3337     Zr3344   2.381       .  S
O3338     Zr3343   2.384       .  S
O3338     Zr3344   2.355       .  S
O3338      H3373   0.965       .  S
O3339     Zr3342   2.401       .  S
O3339     Zr3359   2.402       .  S
O3339      H3376   0.966       .  S
O3340     Zr3343   2.393       .  S
O3340     Zr3359   2.397       .  S
Zr3341     O3366   2.441       .  S
Zr3341     O3360   2.491       .  S
Zr3341     O3368   2.417       .  S
Zr3341     O3356   2.379       .  S
Zr3341     O3347   2.400       .  S
Zr3341     O3348   2.445       .  S
Zr3341     O3349   2.376       .  S
Zr3341     O3350   2.374       .  S
Zr3342     O3361   2.441       .  S
Zr3342     O3354   2.435       .  S
Zr3342     O3355   2.425       .  S
Zr3342     O3348   2.402       .  S
Zr3342     O3349   2.405       .  S
Zr3343     O3345   2.434       .  S
Zr3343     O3367   2.439       .  S
Zr3343     O3369   2.421       .  S
Zr3343     O3347   2.384       .  S
Zr3343     O3350   2.390       .  S
Zr3344     O3370   2.435       .  S
Zr3344     O3371   2.436       .  S
Zr3344     O3346   2.437       .  S
Zr3344     O3347   2.406       .  S
Zr3344     O3348   2.396       .  S
O3345      H3382   0.990       .  S
O3346      H3377   0.990       .  S
O3346      H3391   0.990       .  S
O3348      H3374   0.966       .  S
O3349     Zr3359   2.370       .  S
O3350     Zr3359   2.389       .  S
O3350      H3375   0.966       .  S
C3351      C4484   1.455       .  S
C3352      C4458   1.398       .  S
C3353      C4452   1.430       .  S
O3354      H3390   0.990       .  S
O3355      C3357   1.276       .  A
O3356      C3357   1.262       .  A
C3357      C4449   1.400       .  S
O3358     Zr3359   2.439       .  S
O3358      H3387   0.990       .  S
Zr3359     O3362   2.437       .  S
Zr3359     O3363   2.440       .  S
Zr3359     O3364   2.433       .  S
O3360      C3365   1.293       .  A
O3361      H3378   0.990       .  S
O3361      H3393   0.990       .  S
O3362      H3379   0.990       .  S
O3363      H3383   0.990       .  S
O3363      H3392   0.990       .  S
O3364      C3365   1.281       .  A
C3365      C4447   1.469       .  S
O3366      H3385   0.990       .  S
O3366      H3389   0.990       .  S
O3367      H3381   0.990       .  S
O3367      H3388   0.990       .  S
O3368      C3372   1.279       .  A
O3369      C3372   1.279       .  A
O3370      H3380   0.990       .  S
O3371      H3384   0.990       .  S
C3372      C4446   1.423       .  S
Zr3395     O3396   2.441       .  S
Zr3395     O3397   2.462       .  S
Zr3395     O3398   2.429       .  S
Zr3395     O3401   2.387       .  S
Zr3395     O3403   2.376       .  S
Zr3395     O3404   2.394       .  S
Zr3395     O3405   2.413       .  S
Zr3395     O3406   2.418       .  S
O3396      H3452   0.990       .  S
O3396      H3460   0.990       .  S
O3397      C3417   1.288       .  A
O3398      C3419   1.281       .  A
O3399     Zr3409   2.400       .  S
O3399      C3418   1.267       .  A
O3400     Zr3408   2.443       .  S
O3400      C3419   1.284       .  A
O3401      C3418   1.265       .  A
O3402     Zr3410   2.436       .  S
O3402      C3417   1.282       .  A
O3403     Zr3408   2.399       .  S
O3403     Zr3410   2.384       .  S
O3404     Zr3409   2.417       .  S
O3404     Zr3410   2.364       .  S
O3404      H3439   0.965       .  S
O3405     Zr3408   2.397       .  S
O3405     Zr3425   2.403       .  S
O3405      H3442   0.965       .  S
O3406     Zr3409   2.410       .  S
O3406     Zr3425   2.391       .  S
Zr3407     O3432   2.444       .  S
Zr3407     O3426   2.449       .  S
Zr3407     O3434   2.404       .  S
Zr3407     O3422   2.359       .  S
Zr3407     O3413   2.388       .  S
Zr3407     O3414   2.406       .  S
Zr3407     O3415   2.370       .  S
Zr3407     O3416   2.365       .  S
Zr3408     O3427   2.437       .  S
Zr3408     O3420   2.435       .  S
Zr3408     O3421   2.438       .  S
Zr3408     O3414   2.399       .  S
Zr3408     O3415   2.389       .  S
Zr3409     O3411   2.434       .  S
Zr3409     O3433   2.437       .  S
Zr3409     O3435   2.426       .  S
Zr3409     O3413   2.389       .  S
Zr3409     O3416   2.386       .  S
Zr3410     O3436   2.435       .  S
Zr3410     O3437   2.435       .  S
Zr3410     O3412   2.437       .  S
Zr3410     O3413   2.407       .  S
Zr3410     O3414   2.396       .  S
O3411      H3448   0.990       .  S
O3412      H3457   0.990   1_655  S
O3414      H3440   0.966       .  S
O3415     Zr3425   2.363       .  S
O3416     Zr3425   2.383       .  S
O3416      H3441   0.966       .  S
C3417      C4468   1.451       .  S
C3418      C4469   1.408       .  S
C3419      C4456   1.434       .  S
O3420      H3456   0.990       .  S
O3421      C3423   1.284       .  A
O3422      C3423   1.270       .  A
C3423      C4441   1.406       .  S
O3424     Zr3425   2.439       .  S
O3424      H3453   0.990       .  S
Zr3425     O3428   2.437       .  S
Zr3425     O3429   2.441       .  S
Zr3425     O3430   2.438       .  S
O3426      C3431   1.286       .  A
O3427      H3444   0.990       .  S
O3427      H3459   0.990       .  S
O3428      H3445   0.990       .  S
O3429      H3449   0.990       .  S
O3429      H3458   0.989       .  S
O3430      C3431   1.283       .  A
C3431      C4444   1.450       .  S
O3432      H3451   0.990       .  S
O3432      H3455   0.990       .  S
O3433      H3447   0.990       .  S
O3433      H3454   0.990       .  S
O3434      C3438   1.278       .  A
O3435      C3438   1.281       .  A
O3436      H3446   0.990       .  S
O3437      H3450   0.990       .  S
C3438      C4445   1.422       .  S
Zr3461     O3462   2.441       .  S
Zr3461     O3463   2.425       .  S
Zr3461     O3464   2.430       .  S
Zr3461     O3467   2.422       .  S
Zr3461     O3469   2.377       .  S
Zr3461     O3470   2.405       .  S
Zr3461     O3471   2.412       .  S
Zr3461     O3472   2.401       .  S
O3462      H3518   0.990       .  S
O3462      H3526   0.990       .  S
O3463      C3483   1.280       .  A
O3464      C3485   1.276       .  A
O3465     Zr3475   2.473       .  S
O3465      C3484   1.284       .  A
O3466     Zr3474   2.378       .  S
O3466      C3485   1.265       .  A
O3467      C3484   1.274       .  A
O3468     Zr3476   2.499       .  S
O3468      C3483   1.295       .  A
O3469     Zr3474   2.395       .  S
O3469     Zr3476   2.354       .  S
O3470     Zr3475   2.437       .  S
O3470     Zr3476   2.369       .  S
O3470      H3505   0.966       .  S
O3471     Zr3474   2.403       .  S
O3471     Zr3491   2.371       .  S
O3471      H3508   0.965       .  S
O3472     Zr3475   2.410       .  S
O3472     Zr3491   2.353       .  S
Zr3473     O3498   2.442       .  S
Zr3473     O3492   2.462       .  S
Zr3473     O3488   2.373       .  S
Zr3474     O3480   2.390       .  S
Zr3474     O3481   2.368       .  S
Zr3475     O3477   2.436       .  S
Zr3475     O3499   2.436       .  S
Zr3475     O3501   2.541       .  S
Zr3475     O3479   2.389       .  S
Zr3475     O3482   2.380       .  S
Zr3476     O3502   2.434       .  S
Zr3476     O3503   2.434       .  S
Zr3476     O3478   2.436       .  S
Zr3476     O3479   2.432       .  S
Zr3476     O3480   2.420       .  S
O3477      H3514   0.990       .  S
O3478      H3509   0.990       .  S
O3478      H3523   0.990       .  S
O3481     Zr3491   2.374       .  S
O3482     Zr3491   2.403       .  S
O3482      H3507   0.965       .  S
C3483      C4448   1.468       .  S
C3484      C3550   1.468       .  S
C3485      C4442   1.414       .  S
O3487      C3489   1.277       .  A
O3488      C3489   1.275       .  A
C3489      C3555   1.439       .  S
O3490     Zr3491   2.440       .  S
O3490      H3519   0.990       .  S
Zr3491     O3494   2.437       .  S
Zr3491     O3495   2.444       .  S
Zr3491     O3496   2.379   1_655  S
O3492      C3497   1.285       .  A
O3493      H3510   0.990       .  S
O3494      H3511   0.990       .  S
O3495      H3515   0.990       .  S
O3495      H3524   0.989       .  S
C3497      C4437   1.424       .  S
O3498      H3517   0.990       .  S
O3498      H3521   0.990       .  S
O3499      H3513   0.990       .  S
O3499      H3520   0.990       .  S
O3500      C3504   1.274   1_455  A
O3501      C3504   1.304       .  A
O3502      H3512   0.990       .  S
Zr3527     O3528   2.441       .  S
Zr3527     O3529   2.435       .  S
Zr3527     O3530   2.410       .  S
Zr3527     O3533   2.416       .  S
Zr3527     O3535   2.378       .  S
Zr3527     O3536   2.398       .  S
Zr3527     O3537   2.425       .  S
Zr3527     O3538   2.410       .  S
O3528      H3584   0.991       .  S
O3528      H3592   0.991       .  S
O3529      C3549   1.282       .  A
O3530      C3551   1.271       .  A
O3531     Zr3541   2.472       .  S
O3531      C3550   1.284       .  A
O3532     Zr3540   2.398       .  S
O3532      C3551   1.269       .  A
O3533      C3550   1.272       .  A
O3534     Zr3542   2.453       .  S
O3534      C3549   1.286       .  A
O3535     Zr3540   2.389       .  S
O3535     Zr3542   2.365       .  S
O3536     Zr3541   2.430       .  S
O3536     Zr3542   2.378       .  S
O3536      H3571   0.966       .  S
O3537     Zr3540   2.406       .  S
O3537     Zr3557   2.367       .  S
O3537      H3574   0.963       .  S
O3538     Zr3541   2.407       .  S
O3538     Zr3557   2.359       .  S
Zr3539     O3564   2.441       .  S
Zr3539     O3558   2.443       .  S
Zr3539     O3566   2.392       .  S
Zr3539     O3554   2.375       .  S
Zr3539     O3545   2.398       .  S
Zr3539     O3546   2.404       .  S
Zr3539     O3547   2.370       .  S
Zr3539     O3548   2.388       .  S
Zr3540     O3559   2.441       .  S
Zr3540     O3552   2.434       .  S
Zr3540     O3553   2.414       .  S
Zr3540     O3546   2.397       .  S
Zr3540     O3547   2.366       .  S
Zr3541     O3543   2.436       .  S
Zr3541     O3565   2.437       .  S
Zr3541     O3567   2.507       .  S
Zr3541     O3545   2.397       .  S
Zr3541     O3548   2.390       .  S
Zr3542     O3568   2.434       .  S
Zr3542     O3569   2.434       .  S
Zr3542     O3544   2.436       .  S
Zr3542     O3545   2.414       .  S
Zr3542     O3546   2.404       .  S
O3543      H3580   0.990       .  S
O3544      H3575   0.990       .  S
O3544      H3589   0.990       .  S
O3546      H3572   0.966       .  S
O3547     Zr3557   2.371       .  S
O3548     Zr3557   2.386       .  S
O3548      H3573   0.966       .  S
C3549      C4443   1.450       .  S
C3551      C4450   1.407       .  S
O3552      H3588   0.989       .  S
O3553      C3555   1.278       .  A
O3554      C3555   1.276       .  A
O3556     Zr3557   2.439       .  S
O3556      H3585   0.990       .  S
Zr3557     O3560   2.438       .  S
Zr3557     O3561   2.438       .  S
Zr3557     O3562   2.394       .  S
O3558      C3563   1.280       .  A
O3559      H3576   0.990       .  S
O3559      H3591   0.989       .  S
O3560      H3577   0.990       .  S
O3561      H3581   0.990       .  S
O3561      H3590   0.990       .  S
O3562      C3563   1.266       .  A
C3563      C4433   1.418       .  S
O3564      H3583   0.990       .  S
O3564      H3587   0.990       .  S
O3565      H3579   0.990       .  S
O3565      H3586   0.990       .  S
O3566      C3570   1.276       .  A
O3567      C3570   1.298       .  A
O3568      H3578   0.990       .  S
O3569      H3582   0.990       .  S
C3570      C4436   1.455       .  S
Zr3593     O3594   2.443       .  S
Zr3593     O3595   2.475       .  S
Zr3593     O3596   2.420       .  S
Zr3593     O3599   2.385       .  S
Zr3593     O3601   2.375       .  S
Zr3593     O3602   2.388       .  S
Zr3593     O3603   2.424       .  S
Zr3593     O3604   2.420       .  S
O3594      H3650   0.990       .  S
O3594      H3658   0.991       .  S
O3595      C3615   1.289       .  A
O3596      C3617   1.278       .  A
O3597     Zr3607   2.451       .  S
O3597      C3616   1.282       .  A
O3598     Zr3606   2.472       .  S
O3598      C3617   1.287       .  A
O3599      C3616   1.268       .  A
O3600     Zr3608   2.471       .  S
O3600      C3615   1.288       .  A
O3601     Zr3606   2.404       .  S
O3601     Zr3608   2.386       .  S
O3602     Zr3607   2.410       .  S
O3602     Zr3608   2.361       .  S
O3602      H3637   0.965       .  S
O3603     Zr3606   2.407       .  S
O3603     Zr3623   2.415       .  S
O3603      H3640   0.965       .  S
O3604     Zr3607   2.398       .  S
O3604     Zr3623   2.410       .  S
Zr3605     O3630   2.443       .  S
Zr3605     O3624   2.489       .  S
Zr3605     O3632   2.407       .  S
Zr3605     O3620   2.373       .  S
Zr3605     O3611   2.409       .  S
Zr3605     O3612   2.423       .  S
Zr3605     O3613   2.374       .  S
Zr3605     O3614   2.371       .  S
Zr3606     O3625   2.441       .  S
Zr3606     O3618   2.436       .  S
Zr3606     O3619   2.462       .  S
Zr3606     O3612   2.401       .  S
Zr3606     O3613   2.401       .  S
Zr3607     O3609   2.435       .  S
Zr3607     O3631   2.437       .  S
Zr3607     O3633   2.461       .  S
Zr3607     O3611   2.396       .  S
Zr3607     O3614   2.401       .  S
Zr3608     O3634   2.436       .  S
Zr3608     O3635   2.435       .  S
Zr3608     O3610   2.436       .  S
Zr3608     O3611   2.413       .  S
Zr3608     O3612   2.416       .  S
O3609      H3646   0.990       .  S
O3610      H3641   0.990       .  S
O3610      H3655   0.990       .  S
O3612      H3638   0.966       .  S
O3613     Zr3623   2.361       .  S
O3614     Zr3623   2.385       .  S
O3614      H3639   0.966       .  S
C3615      C4429   1.477       .  S
C3616      C4431   1.425       .  S
C3617      C4427   1.445       .  S
O3618      H3654   0.990       .  S
O3619      C3621   1.287       .  A
O3620      C3621   1.269       .  A
C3621      C4477   1.422       .  S
O3622     Zr3623   2.439       .  S
O3622      H3651   0.990       .  S
Zr3623     O3626   2.437       .  S
Zr3623     O3627   2.439       .  S
Zr3623     O3628   2.468       .  S
O3624      C3629   1.293       .  A
O3625      H3642   0.990       .  S
O3625      H3657   0.990       .  S
O3626      H3643   0.990       .  S
O3627      H3647   0.990       .  S
O3627      H3656   0.990       .  S
O3628      C3629   1.288       .  A
C3629      C4476   1.485       .  S
O3630      H3649   0.991       .  S
O3630      H3653   0.990       .  S
O3631      H3645   0.990       .  S
O3631      H3652   0.990       .  S
O3632      C3636   1.276       .  A
O3633      C3636   1.287       .  A
O3634      H3644   0.990       .  S
O3635      H3648   0.990       .  S
C3636      C4425   1.441       .  S
Zr3659     O3660   2.440       .  S
Zr3659     O3665   2.394       .  S
Zr3659     O3668   2.400       .  S
Zr3659     O3669   2.422       .  S
Zr3659     O3670   2.420       .  S
O3660      H3716   0.990       .  S
O3660      H3724   0.990       .  S
O3661      C3681   1.293       .  A
O3662      C3683   1.285       .  A
O3663     Zr3673   2.388       .  S
O3663      C3682   1.261       .  A
O3664     Zr3672   2.496       .  S
O3664      C3683   1.295       .  A
O3665      C3682   1.265       .  A
O3666     Zr3674   2.471       .  S
O3666      C3681   1.289       .  A
O3667     Zr3672   2.408       .  S
O3667     Zr3674   2.380       .  S
O3668     Zr3673   2.432       .  S
O3668      H3703   0.965       .  S
O3669     Zr3689   2.424       .  S
O3669      H3706   0.966       .  S
O3670     Zr3673   2.423       .  S
O3670     Zr3689   2.380       .  S
Zr3671     O3696   2.445       .  S
Zr3671     O3690   2.462       .  S
Zr3671     O3698   2.422       .  S
Zr3671     O3686   2.361       .  S
Zr3671     O3677   2.390       .  S
Zr3671     O3679   2.379       .  S
Zr3671     O3680   2.365       .  S
Zr3672     O3684   2.434       .  S
Zr3672     O3685   2.492   1_655  S
Zr3672     O3678   2.406       .  S
Zr3673     O3675   2.435       .  S
Zr3673     O3697   2.438       .  S
Zr3673     O3699   2.439       .  S
Zr3673     O3677   2.381       .  S
Zr3673     O3680   2.383       .  S
Zr3674     O3700   2.435       .  S
Zr3674     O3701   2.435       .  S
Zr3674     O3676   2.436       .  S
Zr3674     O3678   2.419       .  S
O3675      H3712   0.990       .  S
O3676      H3707   0.990       .  S
O3676      H3721   0.990       .  S
O3678      H3704   0.966       .  S
O3679     Zr3689   2.357       .  S
O3680     Zr3689   2.399       .  S
O3680      H3705   0.966       .  S
C3681      C4421   1.479       .  S
C3682      C4424   1.396       .  S
C3683      C4418   1.472       .  S
O3684      H3720   0.990       .  S
O3685      C3687   1.296       .  A
C3687      C4461   1.431       .  S
O3688     Zr3689   2.439       .  S
O3688      H3717   0.990       .  S
Zr3689     O3692   2.437       .  S
Zr3689     O3693   2.439       .  S
Zr3689     O3694   2.444       .  S
O3690      C3695   1.289       .  A
O3691      H3723   0.990       .  S
O3692      H3709   0.990       .  S
O3693      H3713   0.990       .  S
O3693      H3722   0.990       .  S
O3694      C3695   1.284       .  A
C3695      C4488   1.456       .  S
O3696      H3715   0.990       .  S
O3697      H3711   0.990       .  S
O3697      H3718   0.990       .  S
O3698      C3702   1.281       .  A
O3699      C3702   1.282       .  A
O3700      H3710   0.990       .  S
O3701      H3714   0.990       .  S
C3702      C4419   1.439       .  S
Zr3725     O3726   2.442       .  S
Zr3725     O3727   2.483       .  S
Zr3725     O3728   2.424       .  S
Zr3725     O3731   2.382       .  S
Zr3725     O3733   2.375       .  S
Zr3725     O3734   2.391       .  S
Zr3725     O3735   2.425       .  S
Zr3725     O3736   2.423       .  S
O3726      H3782   0.990       .  S
O3726      H3790   0.990       .  S
O3727      C3747   1.291       .  A
O3728      C3749   1.279       .  A
O3729     Zr3739   2.441       .  S
O3729      C3748   1.279       .  A
O3730     Zr3738   2.468       .  S
O3730      C3749   1.287       .  A
O3731      C3748   1.266       .  A
O3732     Zr3740   2.480       .  S
O3732      C3747   1.290       .  A
O3733     Zr3738   2.408       .  S
O3733     Zr3740   2.383       .  S
O3734     Zr3739   2.417       .  S
O3734     Zr3740   2.361       .  S
O3734      H3769   0.965       .  S
O3735     Zr3738   2.406       .  S
O3735     Zr3755   2.413       .  S
O3735      H3772   0.965       .  S
O3736     Zr3739   2.401       .  S
O3736     Zr3755   2.408       .  S
Zr3737     O3762   2.444       .  S
Zr3737     O3756   2.478       .  S
Zr3737     O3764   2.399       .  S
Zr3737     O3752   2.362       .  S
Zr3737     O3743   2.404       .  S
Zr3737     O3744   2.419       .  S
Zr3737     O3745   2.368       .  S
Zr3737     O3746   2.367       .  S
Zr3738     O3757   2.439       .  S
Zr3738     O3750   2.435       .  S
Zr3738     O3751   2.473       .  S
Zr3738     O3744   2.398       .  S
Zr3738     O3745   2.390       .  S
Zr3739     O3741   2.436       .  S
Zr3739     O3763   2.438       .  S
Zr3739     O3765   2.465       .  S
Zr3739     O3743   2.388       .  S
Zr3739     O3746   2.394       .  S
Zr3740     O3766   2.436       .  S
Zr3740     O3767   2.435       .  S
Zr3740     O3742   2.436       .  S
Zr3740     O3743   2.413       .  S
Zr3740     O3744   2.423       .  S
O3741      H3778   0.990       .  S
O3742      H3773   0.990       .  S
O3742      H3787   0.990       .  S
O3744      H3770   0.966       .  S
O3745     Zr3755   2.360       .  S
O3746     Zr3755   2.386       .  S
O3746      H3771   0.966       .  S
C3747      C4415   1.483       .  S
C3748      C4413   1.420       .  S
C3749      C4428   1.445       .  S
O3750      H3786   0.990       .  S
O3751      C3753   1.291       .  A
O3752      C3753   1.269       .  A
C3753      C4485   1.424       .  S
O3754     Zr3755   2.439       .  S
O3754      H3783   0.990       .  S
Zr3755     O3758   2.437       .  S
Zr3755     O3759   2.441       .  S
Zr3755     O3760   2.465       .  S
O3756      C3761   1.292       .  A
O3757      H3774   0.990       .  S
O3757      H3789   0.990       .  S
O3758      H3775   0.990       .  S
O3759      H3779   0.990       .  S
O3759      H3788   0.990       .  S
O3760      C3761   1.288       .  A
C3761      C4464   1.477       .  S
O3762      H3781   0.990       .  S
O3762      H3785   0.990       .  S
O3763      H3777   0.990       .  S
O3763      H3784   0.990       .  S
O3764      C3768   1.277       .  A
O3765      C3768   1.288       .  A
O3766      H3776   0.990       .  S
O3767      H3780   0.990       .  S
C3768      C4420   1.437       .  S
Zr3791     O3792   2.441       .  S
Zr3791     O3793   2.473       .  S
Zr3791     O3794   2.439       .  S
Zr3791     O3797   2.381       .  S
Zr3791     O3799   2.374       .  S
Zr3791     O3800   2.402       .  S
Zr3791     O3801   2.419       .  S
Zr3791     O3802   2.421       .  S
O3792      H3848   0.990       .  S
O3792      H3856   0.990       .  S
O3793      C3813   1.290       .  A
O3794      C3815   1.282       .  A
O3795     Zr3805   2.402       .  S
O3795      C3814   1.264       .  A
O3796     Zr3804   2.502       .  S
O3796      C3815   1.295       .  A
O3797      C3814   1.263       .  A
O3798     Zr3806   2.464       .  S
O3798      C3813   1.288       .  A
O3799     Zr3804   2.402       .  S
O3799     Zr3806   2.383       .  S
O3800     Zr3805   2.424       .  S
O3800     Zr3806   2.359       .  S
O3800      H3835   0.965       .  S
O3801     Zr3804   2.398       .  S
O3801     Zr3821   2.425       .  S
O3801      H3838   0.966       .  S
O3802     Zr3805   2.421       .  S
O3802     Zr3821   2.386       .  S
Zr3803     O3828   2.443   1_556  S
Zr3803     O3822   2.474       .  S
Zr3803     O3830   2.434   1_556  S
Zr3803     O3818   2.381       .  S
Zr3803     O3809   2.397       .  S
Zr3803     O3810   2.432       .  S
Zr3803     O3811   2.386       .  S
Zr3803     O3812   2.371       .  S
Zr3804     O3823   2.439       .  S
Zr3804     O3816   2.435       .  S
Zr3804     O3817   2.475       .  S
Zr3804     O3810   2.412       .  S
Zr3804     O3811   2.406       .  S
Zr3805     O3807   2.435       .  S
Zr3805     O3829   2.439       .  S
Zr3805     O3831   2.438   1_556  S
Zr3805     O3809   2.393       .  S
Zr3805     O3812   2.391       .  S
Zr3806     O3832   2.435       .  S
Zr3806     O3833   2.435   1_556  S
Zr3806     O3808   2.437       .  S
Zr3806     O3809   2.413       .  S
Zr3806     O3810   2.411       .  S
O3807      H3844   0.990       .  S
O3808      H3839   0.990       .  S
O3808      H3853   0.990       .  S
O3810      H3836   0.966       .  S
O3811     Zr3821   2.359       .  S
O3812     Zr3821   2.399       .  S
O3812      H3837   0.966       .  S
C3813      C4411   1.468       .  S
C3814      C4410   1.407       .  S
C3815      C4417   1.472       .  S
O3816      H3852   0.990       .  S
O3817      C3819   1.289       .  A
O3818      C3819   1.268       .  A
C3819      C4473   1.431       .  S
O3820     Zr3821   2.439       .  S
O3820      H3849   0.990       .  S
Zr3821     O3824   2.437       .  S
Zr3821     O3825   2.438       .  S
Zr3821     O3826   2.444       .  S
O3822      C3827   1.290       .  A
O3823      H3840   0.990       .  S
O3823      H3855   0.990       .  S
O3824      H3841   0.990       .  S
O3825      H3845   0.990       .  S
O3825      H3854   0.990       .  S
O3826      C3827   1.283       .  A
C3827      C4479   1.463       .  S
O3828      H3847   0.990       .  S
O3828      H3851   0.991       .  S
O3829      H3843   0.990       .  S
O3829      H3850   0.990       .  S
O3830      C3834   1.280       .  A
O3831      C3834   1.282       .  A
O3832      H3842   0.990       .  S
O3833      H3846   0.990       .  S
C3834      C4426   1.443       .  S
Zr3857     O3858   2.440       .  S
Zr3857     O3859   2.467       .  S
Zr3857     O3860   2.432   1_545  S
Zr3857     O3863   2.388       .  S
Zr3857     O3865   2.369   1_545  S
Zr3857     O3866   2.391       .  S
Zr3857     O3867   2.412   1_545  S
Zr3857     O3868   2.422       .  S
O3858      H3914   0.989       .  S
O3858      H3922   0.990       .  S
O3859      C3879   1.288       .  A
O3860      C3881   1.282       .  A
O3861     Zr3871   2.453       .  S
O3861      C3880   1.283       .  A
O3862     Zr3870   2.434       .  S
O3862      C3881   1.281       .  A
O3863      C3880   1.268       .  A
O3864     Zr3872   2.441       .  S
O3864      C3879   1.282       .  A
O3865     Zr3870   2.398       .  S
O3865     Zr3872   2.386   1_565  S
O3866     Zr3871   2.416       .  S
O3866     Zr3872   2.361       .  S
O3866      H3901   0.966       .  S
O3867     Zr3870   2.400       .  S
O3867     Zr3887   2.402       .  S
O3867      H3904   0.964       .  S
O3868     Zr3871   2.399       .  S
O3868     Zr3887   2.410   1_545  S
Zr3869     O3894   2.449   1_556  S
Zr3869     O3888   2.472       .  S
Zr3869     O3896   2.399   1_566  S
Zr3869     O3884   2.370       .  S
Zr3869     O3875   2.404   1_565  S
Zr3869     O3876   2.408       .  S
Zr3869     O3877   2.365       .  S
Zr3869     O3878   2.370   1_565  S
Zr3870     O3889   2.435       .  S
Zr3870     O3882   2.436       .  S
Zr3870     O3883   2.424       .  S
Zr3870     O3876   2.400       .  S
Zr3870     O3877   2.395       .  S
Zr3871     O3873   2.435       .  S
Zr3871     O3895   2.437       .  S
Zr3871     O3897   2.473   1_556  S
Zr3871     O3875   2.390       .  S
Zr3871     O3878   2.396       .  S
Zr3872     O3898   2.436       .  S
Zr3872     O3899   2.435   1_556  S
Zr3872     O3874   2.436       .  S
Zr3872     O3875   2.405       .  S
Zr3872     O3876   2.392   1_545  S
O3873      H3910   0.990       .  S
O3874      H3905   0.990       .  S
O3874      H3919   0.990   1_545  S
O3876      H3902   0.965       .  S
O3877     Zr3887   2.368       .  S
O3878     Zr3887   2.378   1_545  S
O3878      H3903   0.965       .  S
C3879      C4405   1.460       .  S
C3880      C4407   1.427       .  S
C3881      C4402   1.431       .  S
O3882      H3918   0.990       .  S
O3883      C3885   1.281       .  A
O3884      C3885   1.272       .  A
C3885      C4534   1.401   1_556  S
O3886     Zr3887   2.440       .  S
O3886      H3915   0.990       .  S
Zr3887     O3890   2.437       .  S
Zr3887     O3891   2.442       .  S
Zr3887     O3892   2.458       .  S
O3888      C3893   1.291       .  A
O3889      H3906   0.990       .  S
O3889      H3921   0.990       .  S
O3890      H3907   0.990       .  S
O3891      H3911   0.990       .  S
O3891      H3920   0.990       .  S
O3892      C3893   1.286       .  A
C3893      C4544   1.471       .  S
O3894      H3913   0.990       .  S
O3894      H3917   0.990       .  S
O3895      H3909   0.990       .  S
O3895      H3916   0.990       .  S
O3896      C3900   1.277       .  A
O3897      C3900   1.291       .  A
O3898      H3908   0.990       .  S
O3899      H3912   0.990       .  S
C3900      C4403   1.440       .  S
Zr3923     O3924   2.441       .  S
Zr3923     O3925   2.473       .  S
Zr3923     O3926   2.448       .  S
Zr3923     O3929   2.389       .  S
Zr3923     O3931   2.373       .  S
Zr3923     O3932   2.401       .  S
Zr3923     O3933   2.414   1_545  S
Zr3923     O3934   2.426       .  S
O3924      H3980   0.990       .  S
O3924      H3988   0.990       .  S
O3925      C3945   1.290       .  A
O3926      C3947   1.285   1_545  A
O3927     Zr3937   2.405       .  S
O3927      C3946   1.267       .  A
O3928     Zr3936   2.454       .  S
O3928      C3947   1.286       .  A
O3929      C3946   1.265       .  A
O3930     Zr3938   2.440       .  S
O3930      C3945   1.283       .  A
O3931     Zr3936   2.396   1_545  S
O3931     Zr3938   2.382       .  S
O3932     Zr3937   2.426       .  S
O3932     Zr3938   2.363       .  S
O3932      H3967   0.965       .  S
O3933     Zr3936   2.394       .  S
O3933     Zr3953   2.419       .  S
O3933      H3970   0.966       .  S
O3934     Zr3937   2.414       .  S
O3934     Zr3953   2.398   1_545  S
Zr3935     O3960   2.448       .  S
Zr3935     O3954   2.455       .  S
Zr3935     O3962   2.428   1_565  S
Zr3935     O3950   2.363       .  S
Zr3935     O3941   2.389   1_565  S
Zr3935     O3942   2.413       .  S
Zr3935     O3943   2.376       .  S
Zr3935     O3944   2.368       .  S
Zr3936     O3955   2.437       .  S
Zr3936     O3948   2.435       .  S
Zr3936     O3949   2.435       .  S
Zr3936     O3942   2.405       .  S
Zr3936     O3943   2.393       .  S
Zr3937     O3939   2.435       .  S
Zr3937     O3961   2.439       .  S
Zr3937     O3963   2.444       .  S
Zr3937     O3941   2.385       .  S
Zr3937     O3944   2.390   1_545  S
Zr3938     O3964   2.435       .  S
Zr3938     O3965   2.435       .  S
Zr3938     O3940   2.437       .  S
Zr3938     O3941   2.404       .  S
Zr3938     O3942   2.397   1_545  S
O3939      H3976   0.990       .  S
O3940      H3971   0.990       .  S
O3940      H3985   0.990       .  S
O3942      H3968   0.966       .  S
O3943     Zr3953   2.359       .  S
O3944     Zr3953   2.394       .  S
O3944      H3969   0.966       .  S
C3945      C4398   1.459       .  S
C3946      C4395   1.410       .  S
C3947      C4400   1.452       .  S
O3948      H3984   0.990       .  S
O3949      C3951   1.284       .  A
O3950      C3951   1.270       .  A
C3951      C4541   1.406       .  S
O3952     Zr3953   2.440       .  S
O3952      H3981   0.990       .  S
Zr3953     O3956   2.437       .  S
Zr3953     O3957   2.441       .  S
Zr3953     O3958   2.453       .  S
O3954      C3959   1.288       .  A
O3955      H3972   0.990       .  S
O3955      H3987   0.990       .  S
O3956      H3973   0.990       .  S
O3957      H3977   0.990       .  S
O3957      H3986   0.989       .  S
O3958      C3959   1.286       .  A
C3959      C4536   1.460       .  S
O3960      H3979   0.990       .  S
O3960      H3983   0.990       .  S
O3961      H3975   0.990       .  S
O3961      H3982   0.990       .  S
O3962      C3966   1.282       .  A
O3963      C3966   1.284       .  A
O3964      H3974   0.990       .  S
O3965      H3978   0.990       .  S
C3966      C4404   1.443       .  S
Zr3989     O3990   2.442       .  S
Zr3989     O3991   2.480       .  S
Zr3989     O3992   2.412   1_545  S
Zr3989     O3995   2.382       .  S
Zr3989     O3997   2.376   1_545  S
Zr3989     O3998   2.384       .  S
Zr3989     O3999   2.426   1_545  S
Zr3989     O4000   2.420       .  S
O3990      H4046   0.990       .  S
O3990      H4054   0.991       .  S
O3991      C4011   1.290       .  A
O3992      C4013   1.277       .  A
O3993     Zr4003   2.444       .  S
O3993      C4012   1.280       .  A
O3994     Zr4002   2.452       .  S
O3994      C4013   1.283       .  A
O3995      C4012   1.267       .  A
O3996     Zr4004   2.468       .  S
O3996      C4011   1.288       .  A
O3997     Zr4002   2.404       .  S
O3997     Zr4004   2.384   1_565  S
O3998     Zr4003   2.408       .  S
O3998     Zr4004   2.366       .  S
O3998      H4033   0.965       .  S
O3999     Zr4002   2.409       .  S
O3999     Zr4019   2.407       .  S
O3999      H4036   0.964       .  S
O4000     Zr4003   2.392       .  S
O4000     Zr4019   2.413   1_545  S
Zr4001     O4026   2.443       .  S
Zr4001     O4020   2.475       .  S
Zr4001     O4028   2.401   1_565  S
Zr4001     O4016   2.370       .  S
Zr4001     O4007   2.402   1_565  S
Zr4001     O4008   2.418       .  S
Zr4001     O4009   2.367       .  S
Zr4001     O4010   2.370   1_565  S
Zr4002     O4021   2.442       .  S
Zr4002     O4014   2.435       .  S
Zr4002     O4015   2.457       .  S
Zr4002     O4008   2.395       .  S
Zr4002     O4009   2.389       .  S
Zr4003     O4005   2.436       .  S
Zr4003     O4027   2.438       .  S
Zr4003     O4029   2.444       .  S
Zr4003     O4007   2.392       .  S
Zr4003     O4010   2.396       .  S
Zr4004     O4030   2.436       .  S
Zr4004     O4031   2.435       .  S
Zr4004     O4006   2.437   1_545  S
Zr4004     O4007   2.407       .  S
Zr4004     O4008   2.421   1_545  S
O4005      H4042   0.990       .  S
O4006      H4037   0.990   1_565  S
O4006      H4051   0.990       .  S
O4008      H4034   0.966       .  S
O4009     Zr4019   2.358       .  S
O4010     Zr4019   2.381   1_545  S
O4010      H4035   0.966       .  S
C4011      C4394   1.476       .  S
C4012      C4392   1.421       .  S
C4013      C4401   1.429       .  S
O4014      H4050   0.990       .  S
O4015      C4017   1.287       .  A
O4016      C4017   1.271       .  A
C4017      C4434   1.419       .  S
O4018     Zr4019   2.439   1_545  S
O4018      H4047   0.990   1_545  S
Zr4019     O4022   2.438       .  S
Zr4019     O4023   2.440   1_565  S
Zr4019     O4024   2.467       .  S
O4020      C4025   1.291       .  A
O4021      H4038   0.990       .  S
O4021      H4053   0.990       .  S
O4022      H4039   0.990       .  S
O4023      H4043   0.990   1_545  S
O4023      H4052   0.990       .  S
O4024      C4025   1.288       .  A
C4025      C4440   1.477       .  S
O4026      H4045   0.990       .  S
O4026      H4049   0.990       .  S
O4027      H4041   0.990       .  S
O4027      H4048   0.990       .  S
O4028      C4032   1.278       .  A
O4029      C4032   1.284       .  A
O4030      H4040   0.990       .  S
O4031      H4044   0.990       .  S
C4032      C4390   1.426       .  S
Zr4055     O4056   2.441       .  S
Zr4055     O4061   2.386       .  S
Zr4055     O4064   2.395       .  S
Zr4055     O4065   2.421   1_545  S
Zr4055     O4066   2.420       .  S
O4056      H4112   0.990       .  S
O4056      H4120   0.990       .  S
O4057      C4077   1.292       .  A
O4058      C4079   1.281   1_545  A
O4059     Zr4069   2.392       .  S
O4059      C4078   1.262       .  A
O4060     Zr4068   2.472   1_655  S
O4060      C4079   1.290       .  A
O4061      C4078   1.264       .  A
O4062     Zr4070   2.470       .  S
O4062      C4077   1.289       .  A
O4063     Zr4068   2.403   1_645  S
O4063     Zr4070   2.377       .  S
O4064     Zr4069   2.426       .  S
O4064      H4099   0.965       .  S
O4065     Zr4085   2.423       .  S
O4065      H4102   0.966       .  S
O4066     Zr4069   2.415       .  S
O4066     Zr4085   2.389   1_545  S
Zr4067     O4092   2.444       .  S
Zr4067     O4086   2.458       .  S
Zr4067     O4094   2.414   1_565  S
Zr4067     O4082   2.369       .  S
Zr4067     O4073   2.392   1_565  S
Zr4067     O4075   2.373       .  S
Zr4067     O4076   2.368   1_565  S
Zr4068     O4080   2.435   1_455  S
Zr4068     O4081   2.471       .  S
Zr4068     O4074   2.402   1_455  S
Zr4069     O4071   2.435       .  S
Zr4069     O4093   2.438       .  S
Zr4069     O4095   2.424       .  S
Zr4069     O4073   2.385       .  S
Zr4069     O4076   2.385       .  S
Zr4070     O4096   2.435       .  S
Zr4070     O4097   2.435       .  S
Zr4070     O4072   2.437       .  S
Zr4070     O4074   2.419   1_545  S
O4071      H4108   0.990       .  S
O4072      H4103   0.990       .  S
O4072      H4117   0.990       .  S
O4074      H4100   0.966       .  S
O4075     Zr4085   2.355       .  S
O4076     Zr4085   2.395   1_545  S
O4076      H4101   0.966       .  S
C4077      C4385   1.478       .  S
C4078      C4387   1.400       .  S
C4079      C4399   1.451       .  S
O4080      H4116   0.990       .  S
O4081      C4083   1.292       .  A
C4083      C4438   1.424       .  S
O4084     Zr4085   2.439       .  S
O4084      H4113   0.990       .  S
Zr4085     O4088   2.437       .  S
Zr4085     O4089   2.439   1_565  S
Zr4085     O4090   2.452       .  S
O4086      C4091   1.288       .  A
O4087      H4119   0.990       .  S
O4088      H4105   0.990       .  S
O4089      H4109   0.990   1_545  S
O4089      H4118   0.990       .  S
O4090      C4091   1.286       .  A
C4091      C4435   1.459       .  S
O4092      H4111   0.990       .  S
O4093      H4107   0.990       .  S
O4093      H4114   0.990       .  S
O4094      C4098   1.280       .  A
O4095      C4098   1.279       .  A
O4096      H4106   0.990       .  S
O4097      H4110   0.990       .  S
C4098      C4389   1.428       .  S
Zr4121     O4127   2.395       .  S
Zr4121     O4129   2.386       .  S
Zr4121     O4130   2.377       .  S
Zr4121     O4131   2.406       .  S
Zr4121     O4132   2.382       .  S
O4122      H4178   0.984       .  S
O4122      H4186   0.990       .  S
O4124      C4145   1.274       .  A
O4125     Zr4135   2.399       .  S
O4125      C4144   1.275       .  A
O4126      C4145   1.288       .  A
O4127      C4144   1.275       .  A
O4128     Zr4136   2.485       .  S
O4128      C4143   1.292       .  A
O4129     Zr4134   2.420       .  S
O4129     Zr4136   2.378       .  S
O4130     Zr4135   2.372       .  S
O4130     Zr4136   2.361       .  S
O4130      H4165   0.965       .  S
O4131     Zr4134   2.437       .  S
O4131     Zr4151   2.351       .  S
O4132     Zr4135   2.388       .  S
O4132     Zr4151   2.371       .  S
Zr4133     O4158   2.440       .  S
Zr4133     O4152   2.448       .  S
Zr4133     O4160   2.407       .  S
Zr4133     O4148   2.401       .  S
Zr4133     O4139   2.408       .  S
Zr4133     O4140   2.412       .  S
Zr4133     O4141   2.382       .  S
Zr4133     O4142   2.383       .  S
Zr4134     O4153   2.437       .  S
Zr4134     O4146   2.434       .  S
Zr4134     O4147   2.536       .  S
Zr4134     O4140   2.402       .  S
Zr4134     O4141   2.385       .  S
Zr4135     O4137   2.437       .  S
Zr4135     O4159   2.434       .  S
Zr4135     O4161   2.425       .  S
Zr4135     O4139   2.387       .  S
Zr4135     O4142   2.368       .  S
Zr4136     O4162   2.435       .  S
Zr4136     O4163   2.434       .  S
Zr4136     O4138   2.436       .  S
Zr4136     O4139   2.419       .  S
Zr4136     O4140   2.425       .  S
O4137      H4174   0.990       .  S
O4138      H4169   0.990       .  S
O4138      H4183   0.990       .  S
O4140      H4166   0.966       .  S
O4141     Zr4151   2.390       .  S
O4142     Zr4151   2.350       .  S
O4142      H4167   0.962       .  S
C4144      C4388   1.396       .  S
C4145      C4277   1.473       .  S
O4147      C4149   1.304       .  A
O4148      C4149   1.277       .  A
C4149      C4430   1.473       .  S
O4150     Zr4151   2.440       .  S
O4150      H4179   0.990       .  S
Zr4151     O4154   2.436       .  S
Zr4151     O4155   2.436       .  S
Zr4151     O4156   2.385       .  S
O4152      C4157   1.282       .  A
O4154      H4171   0.990       .  S
O4155      H4175   0.990       .  S
O4155      H4184   0.990       .  S
O4156      C4157   1.264       .  A
C4157      C4414   1.415       .  S
O4158      H4177   0.990       .  S
O4158      H4181   0.990       .  S
O4159      H4173   0.990       .  S
O4159      H4180   0.990       .  S
O4160      C4164   1.283       .  A
O4161      C4164   1.281       .  A
O4162      H4172   0.990       .  S
O4163      H4176   0.990       .  S
C4164      C4296   1.444       .  S
Zr4187     O4188   2.444       .  S
Zr4187     O4189   2.448       .  S
Zr4187     O4190   2.422       .  S
Zr4187     O4193   2.410       .  S
Zr4187     O4195   2.394       .  S
Zr4187     O4196   2.378       .  S
Zr4187     O4197   2.413       .  S
Zr4187     O4198   2.388       .  S
O4188      H4244   0.989       .  S
O4188      H4252   0.990       .  S
O4189      C4209   1.285       .  A
O4190      C4211   1.276       .  A
O4191     Zr4201   2.382       .  S
O4191      C4210   1.274       .  A
O4192     Zr4200   2.455       .  S
O4192      C4211   1.280       .  A
O4193      C4210   1.277       .  A
O4194     Zr4202   2.509       .  S
O4194      C4209   1.297       .  A
O4195     Zr4200   2.430       .  S
O4195     Zr4202   2.371       .  S
O4196     Zr4201   2.374       .  S
O4196     Zr4202   2.360       .  S
O4196      H4231   0.965       .  S
O4197     Zr4200   2.446       .  S
O4197     Zr4217   2.344       .  S
O4197      H4234   0.964       .  S
O4198     Zr4201   2.387       .  S
O4198     Zr4217   2.373       .  S
Zr4199     O4224   2.441       .  S
Zr4199     O4218   2.464       .  S
Zr4199     O4226   2.404       .  S
Zr4199     O4214   2.403       .  S
Zr4199     O4205   2.415       .  S
Zr4199     O4206   2.416       .  S
Zr4199     O4207   2.372       .  S
Zr4199     O4208   2.378       .  S
Zr4200     O4219   2.438       .  S
Zr4200     O4212   2.434       .  S
Zr4200     O4213   2.532       .  S
Zr4200     O4206   2.395       .  S
Zr4200     O4207   2.381       .  S
Zr4201     O4203   2.437       .  S
Zr4201     O4225   2.434       .  S
Zr4201     O4227   2.420       .  S
Zr4201     O4205   2.382       .  S
Zr4201     O4208   2.371       .  S
Zr4202     O4228   2.435       .  S
Zr4202     O4229   2.434       .  S
Zr4202     O4204   2.436       .  S
Zr4202     O4205   2.426       .  S
Zr4202     O4206   2.437       .  S
O4203      H4240   0.990       .  S
O4204      H4235   0.990       .  S
O4204      H4249   0.990       .  S
O4206      H4232   0.966       .  S
O4207     Zr4217   2.394       .  S
O4208     Zr4217   2.354       .  S
O4208      H4233   0.963       .  S
C4209      C4422   1.478       .  S
C4210      C4409   1.400       .  S
C4211      C4343   1.465       .  S
O4212      H4248   0.990       .  S
O4213      C4215   1.303       .  A
O4214      C4215   1.277       .  A
C4215      C4393   1.473       .  S
O4216     Zr4217   2.440       .  S
O4216      H4245   0.990       .  S
Zr4217     O4220   2.438       .  S
Zr4217     O4221   2.437       .  S
Zr4217     O4222   2.379       .  S
O4218      C4223   1.286       .  A
O4219      H4236   0.990       .  S
O4219      H4251   0.990       .  S
O4220      H4237   0.990       .  S
O4221      H4241   0.990       .  S
O4221      H4250   0.990       .  S
O4222      C4223   1.266       .  A
C4223      C4408   1.423       .  S
O4224      H4243   0.990       .  S
O4224      H4247   0.990       .  S
O4225      H4239   0.990       .  S
O4225      H4246   0.990       .  S
O4226      C4230   1.282       .  A
O4227      C4230   1.279       .  A
O4228      H4238   0.990       .  S
O4229      H4242   0.990       .  S
C4230      C4362   1.443       .  S
Zr4253     O4254   2.436       .  S
Zr4253     O4255   2.450       .  S
Zr4253     O4256   2.437       .  S
Zr4253     O4259   2.436       .  S
Zr4253     O4261   2.396       .  S
Zr4253     O4262   2.380       .  S
Zr4253     O4263   2.417       .  S
Zr4253     O4264   2.389       .  S
O4254      H4310   0.990       .  S
O4254      H4318   0.991       .  S
O4255      C4275   1.285       .  A
O4256      C4277   1.278       .  A
O4257     Zr4267   2.386       .  S
O4257      C4276   1.271       .  A
O4258     Zr4266   2.465       .  S
O4258      C4277   1.282       .  A
O4259      C4276   1.280       .  A
O4260     Zr4268   2.507       .  S
O4260      C4275   1.297       .  A
O4261     Zr4266   2.432       .  S
O4261     Zr4268   2.373       .  S
O4262     Zr4267   2.386       .  S
O4262     Zr4268   2.356       .  S
O4262      H4297   0.965       .  S
O4263     Zr4266   2.451       .  S
O4263     Zr4283   2.343       .  S
O4263      H4300   0.963       .  S
O4264     Zr4267   2.398       .  S
O4264     Zr4283   2.372       .  S
Zr4265     O4290   2.441       .  S
Zr4265     O4284   2.460       .  S
Zr4265     O4292   2.402       .  S
Zr4265     O4280   2.401       .  S
Zr4265     O4271   2.414       .  S
Zr4265     O4272   2.415       .  S
Zr4265     O4273   2.375       .  S
Zr4265     O4274   2.379       .  S
Zr4266     O4285   2.438       .  S
Zr4266     O4278   2.434       .  S
Zr4266     O4279   2.547       .  S
Zr4266     O4272   2.396       .  S
Zr4266     O4273   2.379       .  S
Zr4267     O4269   2.437       .  S
Zr4267     O4291   2.435       .  S
Zr4267     O4293   2.430       .  S
Zr4267     O4271   2.383       .  S
Zr4267     O4274   2.370       .  S
Zr4268     O4294   2.436       .  S
Zr4268     O4295   2.434       .  S
Zr4268     O4270   2.436       .  S
Zr4268     O4271   2.426       .  S
Zr4268     O4272   2.437       .  S
O4269      H4306   0.990       .  S
O4270      H4301   0.990       .  S
O4270      H4315   0.990       .  S
O4272      H4298   0.966       .  S
O4273     Zr4283   2.394       .  S
O4274     Zr4283   2.349       .  S
O4274      H4299   0.962       .  S
C4275      C4386   1.478       .  S
C4276      C4396   1.407       .  S
O4278      H4314   0.990       .  S
O4279      C4281   1.306       .  A
O4280      C4281   1.277       .  A
C4281      C4416   1.480       .  S
O4282     Zr4283   2.440       .  S
O4282      H4311   0.990       .  S
Zr4283     O4286   2.437       .  S
Zr4283     O4287   2.437       .  S
Zr4283     O4288   2.381       .  S
O4284      C4289   1.286       .  A
O4285      H4302   0.990       .  S
O4285      H4317   0.990       .  S
O4286      H4303   0.990       .  S
O4287      H4307   0.990       .  S
O4287      H4316   0.990       .  S
O4288      C4289   1.266       .  A
C4289      C4432   1.420       .  S
O4290      H4309   0.990       .  S
O4290      H4313   0.990       .  S
O4291      H4305   0.990       .  S
O4291      H4312   0.990       .  S
O4292      C4296   1.282       .  A
O4293      C4296   1.282       .  A
O4294      H4304   0.990       .  S
O4295      H4308   0.990       .  S
Zr4319     O4325   2.391       .  S
Zr4319     O4327   2.383       .  S
Zr4319     O4328   2.376       .  S
Zr4319     O4329   2.403       .  S
Zr4319     O4330   2.389       .  S
O4320      H4376   0.985       .  S
O4320      H4384   0.990       .  S
O4322      C4343   1.275       .  A
O4323     Zr4333   2.400       .  S
O4323      C4342   1.275       .  A
O4324      C4343   1.284       .  A
O4325      C4342   1.274       .  A
O4326     Zr4334   2.488       .  S
O4326      C4341   1.293       .  A
O4327     Zr4332   2.420       .  S
O4327     Zr4334   2.382       .  S
O4328     Zr4333   2.381       .  S
O4328     Zr4334   2.359       .  S
O4328      H4363   0.965       .  S
O4329     Zr4332   2.434       .  S
O4329     Zr4349   2.344       .  S
O4329      H4366   0.963       .  S
O4330     Zr4333   2.391       .  S
O4330     Zr4349   2.372       .  S
Zr4331     O4356   2.440       .  S
Zr4331     O4350   2.450       .  S
Zr4331     O4358   2.395       .  S
Zr4331     O4346   2.389       .  S
Zr4331     O4337   2.407       .  S
Zr4331     O4338   2.410       .  S
Zr4331     O4339   2.376       .  S
Zr4331     O4340   2.378       .  S
Zr4332     O4351   2.438       .  S
Zr4332     O4344   2.434       .  S
Zr4332     O4345   2.512       .  S
Zr4332     O4338   2.398       .  S
Zr4332     O4339   2.384       .  S
Zr4333     O4335   2.437       .  S
Zr4333     O4357   2.434       .  S
Zr4333     O4359   2.434       .  S
Zr4333     O4337   2.386       .  S
Zr4333     O4340   2.369       .  S
Zr4334     O4360   2.435       .  S
Zr4334     O4361   2.434       .  S
Zr4334     O4336   2.435       .  S
Zr4334     O4337   2.420       .  S
Zr4334     O4338   2.426       .  S
O4335      H4372   0.990       .  S
O4336      H4367   0.990       .  S
O4336      H4381   0.990       .  S
O4338      H4364   0.966       .  S
O4339     Zr4349   2.390       .  S
O4340     Zr4349   2.346       .  S
O4340      H4365   0.962       .  S
C4342      C4423   1.392       .  S
O4345      C4347   1.298       .  A
O4346      C4347   1.275       .  A
C4347      C4406   1.456       .  S
O4348     Zr4349   2.440       .  S
O4348      H4377   0.990       .  S
Zr4349     O4352   2.437       .  S
Zr4349     O4353   2.437       .  S
Zr4349     O4354   2.384       .  S
O4350      C4355   1.283       .  A
O4352      H4369   0.990       .  S
O4353      H4373   0.990       .  S
O4353      H4382   0.990       .  S
O4354      C4355   1.266       .  A
C4355      C4391   1.416       .  S
O4356      H4375   0.990       .  S
O4356      H4379   0.990       .  S
O4357      H4371   0.990       .  S
O4357      H4378   0.990       .  S
O4358      C4362   1.280       .  A
O4359      C4362   1.283       .  A
O4360      H4370   0.990       .  S
O4361      H4374   0.990       .  S
C4385      C4386   1.231       .  T
C4387      C4388   1.185       .  T
C4389      C4390   1.201       .  T
C4391      C4392   1.198       .  T
C4393      C4394   1.230       .  T
C4395      C4396   1.191       .  T
C4397      C4398   1.220       .  T
C4399      C4400   1.216       .  T
C4401      C4402   1.203       .  T
C4403      C4404   1.210       .  T
C4405      C4406   1.220       .  T
C4407      C4408   1.201       .  T
C4409      C4410   1.188       .  T
C4411      C4412   1.225       .  T
C4413      C4414   1.197       .  T
C4415      C4416   1.234       .  T
C4417      C4418   1.228       .  T
C4419      C4420   1.208       .  T
C4421      C4422   1.232       .  T
C4423      C4424   1.182       .  T
C4425      C4426   1.210       .  T
C4427      C4428   1.212       .  T
C4429      C4430   1.230       .  T
C4431      C4432   1.200       .  T
C4433      C4434   1.197       .  T
C4435      C4436   1.219       .  T
C4439      C4440   1.230       .  T
C4441      C4442   1.193       .  T
C4443      C4444   1.215       .  T
C4445      C4446   1.199       .  T
C4447      C4448   1.226       .  T
C4449      C4450   1.189       .  T
C4451      C4452   1.203       .  T
C4453      C4454   1.192       .  T
C4455      C4456   1.205       .  T
C4457      C4458   1.186       .  T
C4459      C4460   1.231       .  T
C4463      C4464   1.231       .  T
C4465      C4466   1.183       .  T
C4467      C4468   1.215       .  T
C4469      C4470   1.189       .  T
C4471      C4472   1.227       .  T
C4473      C4474   1.206   1_556  T
C4475      C4476   1.235       .  T
C4477      C4478   1.200       .  T
C4479      C4480   1.222       .  T
C4481      C4482   1.185       .  T
C4483      C4484   1.218       .  T
C4485      C4486   1.201       .  T
C4487      C4488   1.218       .  T
C4489      C4490   1.178       .  T
C4491      C4492   1.243       .  T
C4493      C4494   1.201       .  T
C4495      C4496   1.220       .  T
C4497      C4498   1.231       .  T
C4499      C4500   1.214       .  T
C4501      C4502   1.202       .  T
C4503      C4504   1.219       .  T
C4505      C4506   1.179       .  T
C4507      C4508   1.200       .  T
C4509      C4510   1.226       .  T
C4511      C4512   1.199       .  T
C4513      C4514   1.227       .  T
C4515      C4516   1.187       .  T
C4517      C4518   1.211       .  T
C4519      C4520   1.200       .  T
C4521      C4522   1.186       .  T
C4523      C4524   1.236       .  T
C4525      C4526   1.226       .  T
C4527      C4528   1.199       .  T
C4529      C4530   1.200   1_554  T
C4531      C4532   1.218       .  T
C4533      C4534   1.190       .  T
C4535      C4536   1.220       .  T
C4537      C4538   1.198       .  T
C4541      C4542   1.193       .  T
C4543      C4544   1.227       .  T
