geometry optimzed in LAMMPS
_audit_creation_date              2020-11-30 
_audit_creation_method            'lammps2cif' 
_symmetry_space_group_name_H-M    'P1' 
_symmetry_Int_Tables_number       1 
_symmetry_cell_setting            triclinic 
loop_ 
_symmetry_equiv_pos_as_xyz 
  x,y,z 
_cell_length_a                    45.29781674215721 
_cell_length_b                    45.523408340776705 
_cell_length_c                    45.41612145634933 
_cell_angle_alpha                 89.5167984936653 
_cell_angle_beta                  88.95608940880676 
_cell_angle_gamma                 90.60357467086034 
loop_ 
_atom_site_label 
_atom_site_type_symbol 
_atom_site_fract_x 
_atom_site_fract_y 
_atom_site_fract_z 
_atom_site_charge 
C1          C  0.25143450  0.37275277  0.50333313     0.03190
C2          C  0.27804246  0.35760242  0.50721545    -0.12960
C3          C  0.27803714  0.32683746  0.00829791     0.00690
C4          C  0.25154503  0.31121055  0.00538186    -0.11480
C5          C  0.22501518  0.32598352  0.00161163     0.03180
C6          C  0.22488461  0.35669963  0.50063315    -0.10900
H7          H  0.29869302  0.36955230  0.50938291     0.08780
H8          H  0.25157978  0.28738545  0.00602928     0.06310
H9          H  0.20415894  0.36791494  0.49765750     0.06150
C10         C  0.41137867  0.21227445  0.00512178     0.03190
C11         C  0.39625441  0.23873512  0.00959669    -0.12960
C12         C  0.36539995  0.23878210  0.01171103     0.00690
C13         C  0.34963679  0.21231344  0.00990814    -0.11480
C14         C  0.36428833  0.18583498  0.00514810     0.03180
C15         C  0.39518706  0.18579681  0.00285021    -0.10900
H16         H  0.40828770  0.25936403  0.01095980     0.08780
H17         H  0.32569628  0.21246057  0.01112262     0.06310
H18         H  0.40641964  0.16528852  0.99881085     0.06150
C19         C  0.24901060  0.04945141  0.99874438     0.03190
C20         C  0.22182222  0.06425671  0.99968235    -0.12960
C21         C  0.22123360  0.09498375  0.00058349     0.00690
C22         C  0.24773340  0.11095300  0.00107203    -0.11480
C23         C  0.27495165  0.09672916  0.99935854     0.03180
C24         C  0.27554939  0.06594509  0.99815096    -0.10900
H25         H  0.20115621  0.05206546  0.99944244     0.08780
H26         H  0.24715611  0.13475021  0.00183484     0.06310
H27         H  0.29663579  0.05498425  0.99677303     0.06150
C28         C  0.08877231  0.21142282  0.99710010     0.03190
C29         C  0.10517283  0.23785238  0.99662914    -0.12960
C30         C  0.13606499  0.23728813  0.99670179     0.00690
C31         C  0.15064584  0.21037110  0.99723087    -0.11480
C32         C  0.13464587  0.18394492  0.99758181     0.03180
C33         C  0.10374921  0.18443997  0.99751122    -0.10900
H34         H  0.09408977  0.25882405  0.99636574     0.08780
H35         H  0.17458373  0.20999000  0.99734161     0.06310
H36         H  0.09155007  0.16383463  0.99783017     0.06150
C37         C  0.99799068  0.21223787  0.41115080     0.03190
C38         C  0.99560352  0.18559610  0.39581115    -0.12960
C39         C  0.99506654  0.18562781  0.36500295     0.00690
C40         C  0.99684313  0.21220946  0.34942414    -0.11480
C41         C  0.99951961  0.23886619  0.36426207     0.03180
C42         C  0.00000596  0.23890142  0.39513282    -0.10900
H43         H  0.99431994  0.16484662  0.40765258     0.08780
H44         H  0.99660509  0.21211426  0.32554346     0.06310
H45         H  0.00218300  0.25961972  0.40649296     0.06150
C46         C  0.50015457  0.37489182  0.24883758     0.03190
C47         C  0.49881091  0.35961611  0.22200647    -0.12960
C48         C  0.49867981  0.32882895  0.22186412     0.00690
C49         C  0.49987529  0.31324342  0.24844496    -0.11480
C50         C  0.50160136  0.32799557  0.27525201     0.03180
C51         C  0.50168136  0.35881534  0.27545644    -0.10900
H52         H  0.49787945  0.37149624  0.20127825     0.08780
H53         H  0.49979336  0.28941727  0.24824063     0.06310
H54         H  0.50302557  0.37011062  0.29629846     0.06150
C55         C  0.00119637  0.21333601  0.08825556     0.03190
C56         C  0.99962187  0.24022942  0.10336914    -0.12960
C57         C  0.99906965  0.24057618  0.13421278     0.00690
C58         C  0.00004626  0.21413602  0.14997673    -0.11480
C59         C  0.00199681  0.18733452  0.13528415     0.03180
C60         C  0.00254294  0.18691239  0.10445742    -0.10900
H61         H  0.99879030  0.26084127  0.09132906     0.08780
H62         H  0.99965858  0.21443789  0.17386365     0.06310
H63         H  0.00403283  0.16604261  0.09326279     0.06150
C64         C  0.49895940  0.05173553  0.25042056     0.03190
C65         C  0.49618239  0.06686367  0.27725214    -0.12960
C66         C  0.49513235  0.09759238  0.27738134     0.00690
C67         C  0.49669802  0.11323247  0.25080586    -0.11480
C68         C  0.49975965  0.09853845  0.22405604     0.03180
C69         C  0.50083498  0.06782231  0.22381573    -0.10900
H70         H  0.49502226  0.05493559  0.29799491     0.08780
H71         H  0.49610800  0.13704627  0.25097811     0.06310
H72         H  0.50327433  0.05663685  0.20296113     0.06150
C73         C  0.24896894  0.45756093  0.41163767     0.03190
C74         C  0.22179860  0.45739866  0.39706657    -0.12960
C75         C  0.22109850  0.45591879  0.36632277     0.00690
C76         C  0.24752947  0.45503635  0.35001329    -0.11480
C77         C  0.27476858  0.45481990  0.36406075     0.03180
C78         C  0.27544936  0.45591715  0.39492892    -0.10900
H79         H  0.20117497  0.45834635  0.40947913     0.08780
H80         H  0.24686936  0.45429470  0.32616319     0.06310
H81         H  0.29655097  0.45562330  0.40576840     0.06150
C82         C  0.41124387  0.46430727  0.24741784     0.03190
C83         C  0.39458561  0.45985816  0.27361370    -0.12960
C84         C  0.36371891  0.46129500  0.27343543     0.00690
C85         C  0.34939909  0.46716680  0.24704006    -0.11480
C86         C  0.36556718  0.47163130  0.22080250     0.03180
C87         C  0.39649859  0.47017290  0.22098973    -0.10900
H88         H  0.40547715  0.45531890  0.29417600     0.08780
H89         H  0.32548364  0.46812155  0.24688654     0.06310
H90         H  0.40891190  0.47364268  0.20061145     0.06150
C91         C  0.25242298  0.46507153  0.08851235     0.03190
C92         C  0.27854084  0.47461670  0.10189645    -0.12960
C93         C  0.27892333  0.47942883  0.13220449     0.00690
C94         C  0.25243521  0.47766722  0.14833851    -0.11480
C95         C  0.22709894  0.46427363  0.13664384     0.03180
C96         C  0.22747238  0.45785695  0.10631242    -0.10900
H97         H  0.29877974  0.47749781  0.08905127     0.08780
H98         H  0.25263211  0.48391291  0.17129089     0.06310
H99         H  0.20901990  0.44667116  0.09649413     0.06150
C100        C  0.08868071  0.46034384  0.25326505     0.03190
C101        C  0.10716998  0.46051539  0.22786228    -0.12960
C102        C  0.13627935  0.44943501  0.22909026     0.00690
C103        C  0.14542618  0.43847144  0.25649823    -0.11480
C104        C  0.13032837  0.44591041  0.28238886     0.03180
C105        C  0.10134365  0.45553890  0.28083919    -0.10900
H106        H  0.09868977  0.46971217  0.20784457     0.08780
H107        H  0.16616002  0.42715939  0.25840754     0.06310
H108        H  0.08892155  0.45937103  0.30103835     0.06150
O109        O  0.04059965  0.46381078  0.27477646    -0.71720
O110        O  0.45708725  0.46222633  0.27223279    -0.71930
O111        O  0.49935072  0.42128866  0.27309587    -0.71790
O112        O  0.49835021  0.00464629  0.27388146    -0.71800
O113        O  0.50175959  0.00555991  0.22613659    -0.71760
O114        O  0.50072001  0.42213953  0.22529699    -0.71780
O115        O  0.45929720  0.46422447  0.22446805    -0.71720
O116        O  0.04334149  0.46373710  0.22700649    -0.71910
V117        V  0.49891515  0.46302223  0.27254113     1.35240
V118        V  0.50124242  0.46389248  0.22662631     1.35170
C119        C  0.05628493  0.46348611  0.25147133     0.77520
C120        C  0.44386931  0.46343055  0.24799226     0.77580
C121        C  0.50007591  0.40743110  0.24907542     0.77450
C122        C  0.49981055  0.01933274  0.25014283     0.77410
O123        O  0.27520772  0.46339256  0.04089896    -0.71720
O124        O  0.27378877  0.45972996  0.45754677    -0.71930
O125        O  0.27380016  0.00330530  0.99730299    -0.71790
O126        O  0.27504622  0.41991312  0.00140664    -0.71800
O127        O  0.22710763  0.41881521  0.00176625    -0.71760
O128        O  0.22592423  0.00205790  0.00039471    -0.71780
O129        O  0.22586662  0.45988244  0.45926767    -0.71720
O130        O  0.22732041  0.46070768  0.04290156    -0.71910
V131        V  0.27353597  0.46156021  0.99929886     1.35240
V132        V  0.22748350  0.46040860  0.00102262     1.35170
C133        C  0.25158149  0.46257252  0.05614800     0.77520
C134        C  0.24957924  0.45916916  0.44413635     0.77580
C135        C  0.24962372  0.01695008  0.99866203     0.77450
C136        C  0.25122941  0.40514420  0.00211669     0.77410
O137        O  0.45788381  0.18852504  0.00191284    -0.71720
O138        O  0.04143456  0.18821078  0.99840553    -0.71930
O139        O  0.50063357  0.18884446  0.04189905    -0.71790
O140        O  0.49865352  0.18835692  0.45825786    -0.71800
O141        O  0.49938341  0.23604897  0.45769268    -0.71760
O142        O  0.00134425  0.23653922  0.04105783    -0.71780
O143        O  0.04232775  0.23590507  0.99768772    -0.71720
O144        O  0.45847850  0.23622670  0.00136225    -0.71910
V145        V  0.49967931  0.18941316  0.00007235     1.35240
V146        V  0.50037581  0.23525330  0.99941553     1.35170
C147        C  0.44389835  0.21236561  0.00260152     0.77520
C148        C  0.05618656  0.21191102  0.99765825     0.77580
C149        C  0.50114889  0.21285440  0.05574698     0.77450
C150        C  0.49869225  0.21219068  0.44369243     0.77410
C151        C  0.17176834  0.45777113  0.15115124    -0.01790
C152        C  0.20226205  0.45559400  0.15757634     0.07900
C153        C  0.20946308  0.44756328  0.18658686    -0.01900
C154        C  0.18913323  0.45225874  0.20931187    -0.01900
C155        C  0.15836811  0.45100735  0.20359990     0.08030
C156        C  0.15024443  0.45096948  0.17338604    -0.02100
Br157      Br  0.11159837  0.43860160  0.16083020    -0.00650
Br158      Br  0.15825034  0.47227207  0.11376764    -0.00720
Br159      Br  0.20594368  0.46796919  0.24486648    -0.00680
Br160      Br  0.24627133  0.42873964  0.19616952    -0.00660
C161        C  0.32412260  0.45525243  0.15140079    -0.01790
C162        C  0.30689505  0.48087684  0.14870574     0.07900
C163        C  0.31283075  0.50519934  0.16676850    -0.01900
C164        C  0.33384416  0.50299444  0.18912391    -0.01900
C165        C  0.34927910  0.47658932  0.19327118     0.08030
C166        C  0.34536569  0.45323452  0.17354791    -0.02100
Br167      Br  0.36693073  0.41723912  0.17887692    -0.00650
Br168      Br  0.31639898  0.42130357  0.12733821    -0.00720
Br169      Br  0.34039518  0.53552706  0.21525028    -0.00680
Br170      Br  0.29088750  0.54093955  0.16183817    -0.00660
C171        C  0.30684237  0.42959539  0.32694319    -0.01790
C172        C  0.30210958  0.45378670  0.34564019     0.07900
C173        C  0.32107420  0.47855673  0.34341523    -0.01900
C174        C  0.34301013  0.48004805  0.32104426    -0.01900
C175        C  0.34575833  0.45700747  0.30067967     0.08030
C176        C  0.32843349  0.43132500  0.30434903    -0.02100
Br177      Br  0.33357032  0.39899599  0.27756075    -0.00650
Br178      Br  0.28306167  0.39435653  0.33174754    -0.00720
Br179      Br  0.36775283  0.51465535  0.31678446    -0.00680
Br180      Br  0.31538782  0.51165196  0.36911063    -0.00660
C181        C  0.18441769  0.47989938  0.33410439    -0.01790
C182        C  0.19296444  0.45509714  0.35044219     0.07900
C183        C  0.17710734  0.42841335  0.34804950    -0.01900
C184        C  0.15450609  0.42583114  0.32731394    -0.01900
C185        C  0.14763510  0.44996859  0.30930188     0.08030
C186        C  0.16158113  0.47743091  0.31375156    -0.02100
Br187      Br  0.15105596  0.51120086  0.29023692    -0.00650
Br188      Br  0.20534158  0.51676815  0.33836761    -0.00720
Br189      Br  0.13387045  0.38905342  0.32232499    -0.00680
Br190      Br  0.18797712  0.39482680  0.37144519    -0.00660
C191        C  0.47867437  0.14160444  0.15639639    -0.01790
C192        C  0.50371058  0.16005018  0.15290435     0.07900
C193        C  0.02909667  0.15478874  0.16954383    -0.01900
C194        C  0.02853828  0.13286084  0.19145746    -0.01900
C195        C  0.50262289  0.11611599  0.19671235     0.08030
C196        C  0.47813800  0.11958932  0.17835114    -0.02100
Br197      Br  0.44304107  0.09589263  0.18494773    -0.00650
Br198      Br  0.44426307  0.14813446  0.13287217    -0.00720
Br199      Br  0.06276681  0.12663566  0.21536791    -0.00680
Br200      Br  0.06420254  0.17856813  0.16311094    -0.00660
C201        C  0.02492753  0.28201991  0.15875703    -0.01790
C202        C  0.49824647  0.26830510  0.15082163     0.07900
C203        C  0.47126361  0.27810222  0.16288326    -0.01900
C204        C  0.47116648  0.29998194  0.18458521    -0.01900
C205        C  0.49805078  0.31204831  0.19419339     0.08030
C206        C  0.02483061  0.30389028  0.18045707    -0.02100
Br207      Br  0.06153216  0.32103878  0.19315642    -0.00650
Br208      Br  0.06175817  0.26909034  0.14154371    -0.00720
Br209      Br  0.43447521  0.31209303  0.20269048    -0.00680
Br210      Br  0.43470300  0.26006428  0.15098078    -0.00660
C211        C  0.47782688  0.28475406  0.34331172    -0.01790
C212        C  0.00235829  0.26629611  0.34666369     0.07900
C213        C  0.02828046  0.27156056  0.32971651    -0.01900
C214        C  0.02881493  0.29356088  0.30780147    -0.01900
C215        C  0.50340390  0.31035675  0.30269597     0.08030
C216        C  0.47833333  0.30677629  0.32130193    -0.02100
Br217      Br  0.44378138  0.33025489  0.31493511    -0.00650
Br218      Br  0.44267342  0.27821148  0.36717604    -0.00720
Br219      Br  0.06395718  0.29989875  0.28380622    -0.00680
Br220      Br  0.06261688  0.24760382  0.33570823    -0.00660
C221        C  0.46701149  0.14918166  0.33557734    -0.01790
C222        C  0.99377296  0.15805886  0.34825155     0.07900
C223        C  0.02013623  0.14341638  0.34103369    -0.01900
C224        C  0.02012967  0.12151340  0.31939398    -0.01900
C225        C  0.49375733  0.11428980  0.30503243     0.08030
C226        C  0.46700275  0.12727398  0.31394780    -0.02100
Br227      Br  0.43075785  0.11625134  0.29509438    -0.00650
Br228      Br  0.43077381  0.16841261  0.34663805    -0.00720
Br229      Br  0.05664428  0.10325295  0.30748138    -0.00680
Br230      Br  0.05663874  0.15520901  0.35897207    -0.00660
C231        C  0.15728283  0.14200464  0.02458751    -0.01790
C232        C  0.15096557  0.15604583  0.99769022     0.07900
C233        C  0.16376988  0.14585889  0.47126116    -0.01900
C234        C  0.18470099  0.12331920  0.47200177    -0.01900
C235        C  0.19334673  0.11142511  0.99920638     0.08030
C236        C  0.17862840  0.11975099  0.02536272    -0.02100
Br237      Br  0.18916974  0.10193111  0.06230677    -0.00650
Br238      Br  0.13825322  0.15482018  0.06049715    -0.00720
Br239      Br  0.20274519  0.10967623  0.43592255    -0.00680
Br240      Br  0.15395103  0.16416575  0.43429120    -0.00660
C241        C  0.34412469  0.13718542  0.02308644    -0.01790
C242        C  0.34642319  0.15887444  0.00079299     0.07900
C243        C  0.32855384  0.15687741  0.47580881    -0.01900
C244        C  0.30674444  0.13483738  0.47429333    -0.01900
C245        C  0.30233455  0.11489385  0.99796683     0.08030
C246        C  0.32195146  0.11526917  0.02178532    -0.02100
Br247      Br  0.31701094  0.08743896  0.05382302    -0.00650
Br248      Br  0.36987587  0.13884310  0.05642207    -0.00720
Br249      Br  0.28235902  0.13249699  0.43995619    -0.00680
Br250      Br  0.33326387  0.18517414  0.44406249    -0.00660
C251        C  0.31013351  0.29437386  0.03799764    -0.01790
C252        C  0.30549977  0.31013354  0.01167903     0.08140
C253        C  0.32426763  0.30587366  0.48705090    -0.01900
C254        C  0.34590168  0.28397574  0.48787832    -0.01900
C255        C  0.34875437  0.26642252  0.01338897     0.08030
C256        C  0.33180384  0.27255016  0.03887072    -0.02100
Br257      Br  0.33732573  0.24990934  0.07442756    -0.00650
Br258      Br  0.28552202  0.30160245  0.07225233    -0.00720
Br259      Br  0.36945934  0.27605766  0.45304055    -0.00680
Br260      Br  0.31834574  0.32799551  0.45123865    -0.00660
C261        C  0.19092389  0.29554747  0.47184726    -0.01790
C262        C  0.19763790  0.30854546  0.99897026     0.07900
C263        C  0.18090541  0.30121918  0.02446194    -0.01900
C264        C  0.15895577  0.27921446  0.02329804    -0.01900
C265        C  0.15381346  0.26461296  0.99661969     0.08030
C266        C  0.16895152  0.27359939  0.47065951    -0.02100
Br267      Br  0.16047098  0.25474445  0.43383025    -0.00650
Br268      Br  0.21310229  0.30668744  0.43676654    -0.00720
Br269      Br  0.13757508  0.26742366  0.05865009    -0.00680
Br270      Br  0.18971176  0.31980780  0.06134579    -0.00660
C271        C  0.25143189  0.37275312  0.00333365     0.03190
C272        C  0.27803970  0.35760264  0.00721616    -0.12960
C273        C  0.27804012  0.32683722  0.50829689     0.00690
C274        C  0.25154811  0.31121019  0.50538067    -0.11480
C275        C  0.22501817  0.32598303  0.50161063     0.03180
C276        C  0.22488185  0.35670012  0.00063383    -0.10900
H277        H  0.29869035  0.36955241  0.00938345     0.08780
H278        H  0.25158300  0.28738509  0.50602793     0.06310
H279        H  0.20415628  0.36791555  0.99765798     0.06150
C280        C  0.41138154  0.21227398  0.50512161     0.03190
C281        C  0.39625726  0.23873469  0.50959621    -0.12960
C282        C  0.36540279  0.23878170  0.51171045     0.00690
C283        C  0.34963964  0.21231301  0.50990777    -0.11480
C284        C  0.36429120  0.18583448  0.50514807     0.03180
C285        C  0.39518994  0.18579631  0.50285027    -0.10900
H286        H  0.40829055  0.25936362  0.51095917     0.08780
H287        H  0.32569913  0.21246014  0.51112220     0.06310
H288        H  0.40642253  0.16528797  0.49881116     0.06150
C289        C  0.24901316  0.04945091  0.49874564     0.03190
C290        C  0.22182489  0.06425634  0.49968368    -0.12960
C291        C  0.22123646  0.09498338  0.50058475     0.00690
C292        C  0.24773633  0.11095252  0.50107317    -0.11480
C293        C  0.27495451  0.09672854  0.49935964     0.03180
C294        C  0.27555206  0.06594446  0.49815215    -0.10900
H295        H  0.20115882  0.05206520  0.49944378     0.08780
H296        H  0.24715915  0.13474973  0.50183586     0.06310
H297        H  0.29663840  0.05498350  0.49677413     0.06150
C298        C  0.08877528  0.21142238  0.49709998     0.03190
C299        C  0.10517580  0.23785193  0.49662875    -0.12960
C300        C  0.13606796  0.23728766  0.49670138     0.00690
C301        C  0.15064880  0.21037064  0.49723072    -0.11480
C302        C  0.13464882  0.18394448  0.49758195     0.03180
C303        C  0.10375216  0.18443953  0.49751136    -0.10900
H304        H  0.09409275  0.25882361  0.49636517     0.08780
H305        H  0.17458669  0.20998953  0.49734148     0.06310
H306        H  0.09155302  0.16383419  0.49783054     0.06150
C307        C  0.99798783  0.21223824  0.91115081     0.03190
C308        C  0.99560095  0.18559640  0.89581120    -0.12960
C309        C  0.99506425  0.18562801  0.86500298     0.00690
C310        C  0.99684081  0.21220963  0.84942412    -0.11480
C311        C  0.99951700  0.23886642  0.86426200     0.03180
C312        C  0.00000307  0.23890174  0.89513277    -0.10900
H313        H  0.99431745  0.16484694  0.90765268     0.08780
H314        H  0.99660303  0.21211436  0.82554343     0.06310
H315        H  0.00217994  0.25962008  0.90649287     0.06150
C316        C  0.50015333  0.37489161  0.74883715     0.03190
C317        C  0.49881039  0.35961594  0.72200599    -0.12960
C318        C  0.49867988  0.32882879  0.72186360     0.00690
C319        C  0.49987514  0.31324324  0.74844446    -0.11480
C320        C  0.50160044  0.32799539  0.77525157     0.03180
C321        C  0.50167995  0.35881515  0.77545602    -0.10900
H322        H  0.49787915  0.37149608  0.70127776     0.08780
H323        H  0.49979359  0.28941709  0.74824010     0.06310
H324        H  0.50302363  0.37011041  0.79629808     0.06150
C325        C  0.00119923  0.21333560  0.58825550     0.03190
C326        C  0.99962446  0.24022906  0.60336895    -0.12960
C327        C  0.99907191  0.24057593  0.63421258     0.00690
C328        C  0.00004849  0.21413585  0.64997665    -0.11480
C329        C  0.00199930  0.18733430  0.63528420     0.03180
C330        C  0.00254577  0.18691204  0.60445747    -0.10900
H331        H  0.99879283  0.26084086  0.59132879     0.08780
H332        H  0.99966047  0.21443781  0.67386356     0.06310
H333        H  0.00403581  0.16604222  0.59326292     0.06150
C334        C  0.49896015  0.05173551  0.75042083     0.03190
C335        C  0.49618262  0.06686360  0.77725241    -0.12960
C336        C  0.49513235  0.09759232  0.77738164     0.00690
C337        C  0.49669839  0.11323245  0.75080620    -0.11480
C338        C  0.49976058  0.09853849  0.72405641     0.03180
C339        C  0.50083607  0.06782236  0.72381606    -0.10900
H340        H  0.49502216  0.05493547  0.79799514     0.08780
H341        H  0.49610822  0.13704625  0.75097847     0.06310
H342        H  0.50327581  0.05663696  0.70296147     0.06150
C343        C  0.24896679  0.45755914  0.91163695     0.03190
C344        C  0.22179657  0.45739542  0.89706569    -0.12960
C345        C  0.22109680  0.45591495  0.86632192     0.00690
C346        C  0.24752792  0.45503344  0.85001260    -0.11480
C347        C  0.27476697  0.45481815  0.86406026     0.03180
C348        C  0.27544740  0.45591588  0.89492842    -0.10900
H349        H  0.20117281  0.45834252  0.90947809     0.08780
H350        H  0.24686798  0.45429154  0.82616250     0.06310
H351        H  0.29654893  0.45562293  0.90576808     0.06150
C352        C  0.41124366  0.46430900  0.74741872     0.03190
C353        C  0.39458547  0.45985942  0.77361458    -0.12960
C354        C  0.36371875  0.46129629  0.77343643     0.00690
C355        C  0.34939889  0.46716873  0.74704123    -0.11480
C356        C  0.36556689  0.47163368  0.72080372     0.03180
C357        C  0.39649829  0.47017523  0.72099081    -0.10900
H358        H  0.40547707  0.45531958  0.79417672     0.08780
H359        H  0.32548342  0.46812335  0.74688775     0.06310
H360        H  0.40891152  0.47364521  0.70061251     0.06150
C361        C  0.25242401  0.46507058  0.58851325     0.03190
C362        C  0.27854121  0.47461710  0.60189759    -0.12960
C363        C  0.27892303  0.47942958  0.63220555     0.00690
C364        C  0.25243469  0.47766728  0.64833920    -0.11480
C365        C  0.22709918  0.46427229  0.63664441     0.03180
C366        C  0.22747345  0.45785510  0.60631307    -0.10900
H367        H  0.29878019  0.47749883  0.58905267     0.08780
H368        H  0.25263100  0.48391345  0.67129145     0.06310
H369        H  0.20902172  0.44666823  0.59649463     0.06150
C370        C  0.08867989  0.46033993  0.75326412     0.03190
C371        C  0.10716912  0.46051151  0.72786103    -0.12960
C372        C  0.13627850  0.44943056  0.72908949     0.00690
C373        C  0.14542488  0.43846623  0.75649715    -0.11480
C374        C  0.13032701  0.44590465  0.78238788     0.03180
C375        C  0.10134253  0.45553377  0.78083807    -0.10900
H376        H  0.09868959  0.46970832  0.70784404     0.08780
H377        H  0.16615905  0.42715427  0.75840634     0.06310
H378        H  0.08892038  0.45936584  0.80103746     0.06150
O379        O  0.04059919  0.46380931  0.77477583    -0.71720
O380        O  0.45708728  0.46222701  0.77223315    -0.71930
O381        O  0.49934982  0.42128835  0.77309554    -0.71790
O382        O  0.49835090  0.00464618  0.77388157    -0.71800
O383        O  0.50175983  0.00555992  0.72613667    -0.71760
O384        O  0.50071845  0.42213935  0.72529665    -0.71780
O385        O  0.45929675  0.46422547  0.72446840    -0.71720
O386        O  0.04334062  0.46373568  0.72700585    -0.71910
V387        V  0.49891521  0.46302191  0.77254096     1.35240
V388        V  0.50124199  0.46389228  0.72662613     1.35170
C389        C  0.05628425  0.46348392  0.75147051     0.77520
C390        C  0.44386910  0.46343171  0.74799279     0.77580
C391        C  0.50007457  0.40743086  0.74907505     0.77450
C392        C  0.49981116  0.01933270  0.75014298     0.77410
O393        O  0.27520949  0.46339180  0.54090008    -0.71720
O394        O  0.27378644  0.45972967  0.95754591    -0.71930
O395        O  0.27380246  0.00330479  0.49730391    -0.71790
O396        O  0.27504849  0.41991288  0.50140710    -0.71800
O397        O  0.22710992  0.41881480  0.50176610    -0.71760
O398        O  0.22592653  0.00205746  0.50039569    -0.71780
O399        O  0.22586429  0.45988184  0.95926692    -0.71720
O400        O  0.22732217  0.46070651  0.54290221    -0.71910
V401        V  0.27353813  0.46155993  0.49929985     1.35240
V402        V  0.22748566  0.46040827  0.50102332     1.35170
C403        C  0.25158308  0.46257147  0.55614889     0.77520
C404        C  0.24957691  0.45916831  0.94413557     0.77580
C405        C  0.24962607  0.01694960  0.49866311     0.77450
C406        C  0.25123177  0.40514387  0.50211663     0.77410
O407        O  0.45788666  0.18852453  0.50191278    -0.71720
O408        O  0.04143756  0.18821032  0.49840546    -0.71930
O409        O  0.50063646  0.18884390  0.54189897    -0.71790
O410        O  0.49865072  0.18835743  0.95825797    -0.71800
O411        O  0.49938054  0.23604949  0.95769274    -0.71760
O412        O  0.00134723  0.23653873  0.54105777    -0.71780
O413        O  0.04233072  0.23590462  0.49768767    -0.71720
O414        O  0.45848140  0.23622619  0.50136218    -0.71910
V415        V  0.49968215  0.18941260  0.50007225     1.35240
V416        V  0.50037871  0.23525274  0.49941544     1.35170
C417        C  0.44390122  0.21236511  0.50260143     0.77520
C418        C  0.05618954  0.21191057  0.49765817     0.77580
C419        C  0.50115182  0.21285386  0.55574687     0.77450
C420        C  0.49868946  0.21219117  0.94369251     0.77410
C421        C  0.17176854  0.45776702  0.65115104    -0.01790
C422        C  0.20226232  0.45559191  0.65757677     0.07900
C423        C  0.20946327  0.44756241  0.68658769    -0.01900
C424        C  0.18913258  0.45225686  0.70931224    -0.01900
C425        C  0.15836766  0.45100376  0.70359957     0.08030
C426        C  0.15024456  0.45096492  0.67338566    -0.02100
Br427      Br  0.11159892  0.43859556  0.66082993    -0.00650
Br428      Br  0.15825028  0.47226567  0.61376666    -0.00720
Br429      Br  0.20594109  0.46796728  0.74486780    -0.00680
Br430      Br  0.24627238  0.42874098  0.69617149    -0.00660
C431        C  0.32412245  0.45525395  0.65140227    -0.01790
C432        C  0.30689448  0.48087807  0.64870715     0.07900
C433        C  0.31282971  0.50520071  0.66676986    -0.01900
C434        C  0.33384324  0.50299625  0.68912521    -0.01900
C435        C  0.34927871  0.47659144  0.69327245     0.08030
C436        C  0.34536563  0.45323649  0.67354930    -0.02100
Br437      Br  0.36693120  0.41724141  0.67887841    -0.00650
Br438      Br  0.31639927  0.42130476  0.62733997    -0.00720
Br439      Br  0.34039374  0.53552903  0.71525151    -0.00680
Br440      Br  0.29088577  0.54094049  0.66183952    -0.00660
C441        C  0.30684170  0.42959485  0.82694252    -0.01790
C442        C  0.30210826  0.45378571  0.84563997     0.07900
C443        C  0.32107282  0.47855588  0.84341602    -0.01900
C444        C  0.34300931  0.48004780  0.82104561    -0.01900
C445        C  0.34575806  0.45700778  0.80068046     0.08030
C446        C  0.32843327  0.43132515  0.80434883    -0.02100
Br447      Br  0.33357077  0.39899690  0.77755973    -0.00650
Br448      Br  0.28306142  0.39435555  0.83174566    -0.00720
Br449      Br  0.36775212  0.51465518  0.81678731    -0.00680
Br450      Br  0.31538566  0.51165063  0.86911190    -0.00660
C451        C  0.18441411  0.47989455  0.83410509    -0.01790
C452        C  0.19296291  0.45509201  0.85044125     0.07900
C453        C  0.17710808  0.42840711  0.84804684    -0.01900
C454        C  0.15450688  0.42582441  0.82731130    -0.01900
C455        C  0.14763364  0.44996249  0.80930099     0.08030
C456        C  0.16157761  0.47742558  0.81375227    -0.02100
Br457      Br  0.15105016  0.51119606  0.79023946    -0.00650
Br458      Br  0.20533535  0.51676451  0.83837037    -0.00720
Br459      Br  0.13387438  0.38904531  0.82232000    -0.00680
Br460      Br  0.18798092  0.39482004  0.87144026    -0.00660
C461        C  0.47867645  0.14160441  0.65639631    -0.01790
C462        C  0.50371277  0.16005004  0.65290455     0.07900
C463        C  0.02909853  0.15478867  0.66954453    -0.01900
C464        C  0.02853974  0.13286087  0.69145826    -0.01900
C465        C  0.50262424  0.11611607  0.69671279     0.08030
C466        C  0.47813965  0.11958940  0.67835116    -0.02100
Br467      Br  0.44304256  0.09589286  0.68494732    -0.00650
Br468      Br  0.44426553  0.14813447  0.63287155    -0.00720
Br469      Br  0.06276781  0.12663582  0.71536939    -0.00680
Br470      Br  0.06420449  0.17856806  0.66311220    -0.00660
C471        C  0.02492879  0.28202004  0.65875721    -0.01790
C472        C  0.49824846  0.26830492  0.65082118     0.07900
C473        C  0.47126529  0.27810189  0.66288222    -0.01900
C474        C  0.47116755  0.29998163  0.68458413    -0.01900
C475        C  0.49805155  0.31204820  0.69419284     0.08030
C476        C  0.02483112  0.30389049  0.68045717    -0.02100
Br477      Br  0.06153217  0.32103950  0.69315724    -0.00650
Br478      Br  0.06175993  0.26909084  0.64154471    -0.00720
Br479      Br  0.43447584  0.31209249  0.70268865    -0.00680
Br480      Br  0.43470506  0.26006367  0.65097903    -0.00660
C481        C  0.47782500  0.28475419  0.84331116    -0.01790
C482        C  0.00235580  0.26629629  0.84666355     0.07900
C483        C  0.02827819  0.27156080  0.82971673    -0.01900
C484        C  0.02881287  0.29356103  0.80780159    -0.01900
C485        C  0.50340257  0.31035664  0.80269560     0.08030
C486        C  0.47833174  0.30677627  0.82130123    -0.02100
Br487      Br  0.44377985  0.33025478  0.81493376    -0.00650
Br488      Br  0.44267125  0.27821176  0.86717506    -0.00720
Br489      Br  0.06395548  0.29989906  0.78380691    -0.00680
Br490      Br  0.06261465  0.24760429  0.83570909    -0.00660
C491        C  0.46701014  0.14918157  0.83557708    -0.01790
C492        C  0.99377121  0.15805898  0.84825164     0.07900
C493        C  0.02013473  0.14341675  0.84103423    -0.01900
C494        C  0.02012875  0.12151366  0.81939462    -0.01900
C495        C  0.49375672  0.11428974  0.80503273     0.08030
C496        C  0.46700191  0.12727377  0.81394764    -0.02100
Br497      Br  0.43075741  0.11625078  0.79509369    -0.00650
Br498      Br  0.43077215  0.16841232  0.84663710    -0.00720
Br499      Br  0.05664373  0.10325355  0.80748264    -0.00680
Br500      Br  0.05663685  0.15520987  0.85897308    -0.00660
C501        C  0.15728579  0.14200461  0.52458819    -0.01790
C502        C  0.15096850  0.15604541  0.49769071     0.07900
C503        C  0.16376694  0.14585961  0.97126054    -0.01900
C504        C  0.18469805  0.12331990  0.97200085    -0.01900
C505        C  0.19334968  0.11142480  0.49920746     0.08030
C506        C  0.17863138  0.11975101  0.52536368    -0.02100
Br507      Br  0.18917278  0.10193164  0.56230796    -0.00650
Br508      Br  0.13825620  0.15482062  0.56049767    -0.00720
Br509      Br  0.20274228  0.10967742  0.93592146    -0.00680
Br510      Br  0.15394804  0.16416690  0.93429081    -0.00660
C511        C  0.34412773  0.13718496  0.52308686    -0.01790
C512        C  0.34642609  0.15887385  0.50079326     0.07900
C513        C  0.32855100  0.15687829  0.97580848    -0.01900
C514        C  0.30674159  0.13483830  0.97429274    -0.01900
C515        C  0.30233749  0.11489313  0.49796762     0.08030
C516        C  0.32195453  0.11526865  0.52178599    -0.02100
Br517      Br  0.31701425  0.08743858  0.55382384    -0.00650
Br518      Br  0.36987908  0.13884290  0.55642235    -0.00720
Br519      Br  0.28235625  0.13249827  0.93995550    -0.00680
Br520      Br  0.33326110  0.18517535  0.94406247    -0.00660
C521        C  0.31013647  0.29437375  0.53799679    -0.01790
C522        C  0.30550281  0.31013338  0.51167814     0.08140
C523        C  0.32426455  0.30587393  0.98705175    -0.01900
C524        C  0.34589870  0.28397612  0.98787910    -0.01900
C525        C  0.34875723  0.26642216  0.51338823     0.08030
C526        C  0.33180671  0.27254996  0.53886995    -0.02100
Br527      Br  0.33732853  0.24990925  0.57442688    -0.00650
Br528      Br  0.28552497  0.30160250  0.57225142    -0.00720
Br529      Br  0.36945631  0.27605819  0.95304125    -0.00680
Br530      Br  0.31834245  0.32799574  0.95123949    -0.00660
C531        C  0.19092083  0.29554823  0.97184805    -0.01790
C532        C  0.19764097  0.30854487  0.49896939     0.07900
C533        C  0.18090852  0.30121873  0.52446113    -0.01900
C534        C  0.15895885  0.27921405  0.52329737    -0.01900
C535        C  0.15381645  0.26461246  0.49661910     0.08030
C536        C  0.16894850  0.27360010  0.97066017    -0.02100
Br537      Br  0.16046797  0.25474542  0.93383077    -0.00650
Br538      Br  0.21309919  0.30668846  0.93676739    -0.00720
Br539      Br  0.13757825  0.26742340  0.55864953    -0.00680
Br540      Br  0.18971501  0.31980744  0.56134491    -0.00660
C541        C  0.25143443  0.87275261  0.50333377     0.03190
C542        C  0.27804239  0.85760229  0.50721610    -0.12960
C543        C  0.27803707  0.82683746  0.00829824     0.00690
C544        C  0.25154498  0.81121053  0.00538213    -0.11480
C545        C  0.22501511  0.82598348  0.00161196     0.03180
C546        C  0.22488455  0.85669946  0.50063377    -0.10900
H547        H  0.29869295  0.86955219  0.50938355     0.08780
H548        H  0.25157976  0.78738543  0.00602946     0.06310
H549        H  0.20415888  0.86791476  0.49765808     0.06150
C550        C  0.41137866  0.71227450  0.00512177     0.03190
C551        C  0.39625441  0.73873517  0.00959672    -0.12960
C552        C  0.36539995  0.73878216  0.01171108     0.00690
C553        C  0.34963678  0.71231352  0.00990814    -0.11480
C554        C  0.36428831  0.68583506  0.00514807     0.03180
C555        C  0.39518704  0.68579687  0.00285018    -0.10900
H556        H  0.40828772  0.75936407  0.01095985     0.08780
H557        H  0.32569627  0.71246065  0.01112263     0.06310
H558        H  0.40641960  0.66528858  0.99881080     0.06150
C559        C  0.24901073  0.54945141  0.99874402     0.03190
C560        C  0.22182233  0.56425668  0.99968203    -0.12960
C561        C  0.22123369  0.59498372  0.00058327     0.00690
C562        C  0.24773346  0.61095299  0.00107186    -0.11480
C563        C  0.27495173  0.59672918  0.99935834     0.03180
C564        C  0.27554950  0.56594511  0.99815067    -0.10900
H565        H  0.20115634  0.55206541  0.99944208     0.08780
H566        H  0.24715615  0.63475020  0.00183474     0.06310
H567        H  0.29663592  0.55498430  0.99677272     0.06150
C568        C  0.08877233  0.71142272  0.99710008     0.03190
C569        C  0.10517285  0.73785227  0.99662918    -0.12960
C570        C  0.13606501  0.73728802  0.99670185     0.00690
C571        C  0.15064585  0.71037098  0.99723089    -0.11480
C572        C  0.13464588  0.68394480  0.99758178     0.03180
C573        C  0.10374921  0.68443986  0.99751117    -0.10900
H574        H  0.09408980  0.75882395  0.99636580     0.08780
H575        H  0.17458375  0.70998987  0.99734164     0.06310
H576        H  0.09155007  0.66383452  0.99783008     0.06150
C577        C  0.99799060  0.71223793  0.41115081     0.03190
C578        C  0.99560344  0.68559617  0.39581114    -0.12960
C579        C  0.99506647  0.68562792  0.36500294     0.00690
C580        C  0.99684307  0.71220957  0.34942415    -0.11480
C581        C  0.99951955  0.73886629  0.36426211     0.03180
C582        C  0.00000588  0.73890149  0.39513286    -0.10900
H583        H  0.99431985  0.66484668  0.40765256     0.08780
H584        H  0.99660503  0.71211439  0.32554347     0.06310
H585        H  0.00218292  0.75961978  0.40649302     0.06150
C586        C  0.50015424  0.87489174  0.24883752     0.03190
C587        C  0.49881064  0.85961603  0.22200641    -0.12960
C588        C  0.49867972  0.82882887  0.22186406     0.00690
C589        C  0.49987529  0.81324334  0.24844491    -0.11480
C590        C  0.50160130  0.82799551  0.27525195     0.03180
C591        C  0.50168114  0.85881528  0.27545638    -0.10900
H592        H  0.49787913  0.87149615  0.20127819     0.08780
H593        H  0.49979348  0.78941720  0.24824059     0.06310
H594        H  0.50302531  0.87011056  0.29629840     0.06150
C595        C  0.00119642  0.71333594  0.08825553     0.03190
C596        C  0.99962189  0.74022934  0.10336911    -0.12960
C597        C  0.99906967  0.74057607  0.13421276     0.00690
C598        C  0.00004632  0.71413590  0.14997669    -0.11480
C599        C  0.00199688  0.68733442  0.13528408     0.03180
C600        C  0.00254302  0.68691231  0.10445736    -0.10900
H601        H  0.99879029  0.76084119  0.09132905     0.08780
H602        H  0.99965862  0.71443775  0.17386360     0.06310
H603        H  0.00403291  0.66604253  0.09326271     0.06150
C604        C  0.49895924  0.55173561  0.25042061     0.03190
C605        C  0.49618228  0.56686375  0.27725219    -0.12960
C606        C  0.49513233  0.59759247  0.27738139     0.00690
C607        C  0.49669805  0.61323256  0.25080591    -0.11480
C608        C  0.49975963  0.59853852  0.22405609     0.03180
C609        C  0.50083486  0.56782238  0.22381578    -0.10900
H610        H  0.49502212  0.55493567  0.29799496     0.08780
H611        H  0.49610810  0.63704636  0.25097815     0.06310
H612        H  0.50327419  0.55663691  0.20296118     0.06150
C613        C  0.24896879  0.95755992  0.41163786     0.03190
C614        C  0.22179841  0.95739703  0.39706682    -0.12960
C615        C  0.22109827  0.95591695  0.36632303     0.00690
C616        C  0.24752923  0.95503492  0.35001349    -0.11480
C617        C  0.27476839  0.95481899  0.36406089     0.03180
C618        C  0.27544920  0.95591643  0.39492906    -0.10900
H619        H  0.20117479  0.95834446  0.40947941     0.08780
H620        H  0.24686907  0.95429319  0.32616339     0.06310
H621        H  0.29655084  0.95562300  0.40576850     0.06150
C622        C  0.41124372  0.96430773  0.24741792     0.03190
C623        C  0.39458547  0.95985850  0.27361379    -0.12960
C624        C  0.36371878  0.96129542  0.27343557     0.00690
C625        C  0.34939894  0.96716748  0.24704027    -0.11480
C626        C  0.36556700  0.97163210  0.22080272     0.03180
C627        C  0.39649841  0.97017359  0.22098988    -0.10900
H628        H  0.40547703  0.95531902  0.29417604     0.08780
H629        H  0.32548348  0.96812225  0.24688678     0.06310
H630        H  0.40891170  0.97364343  0.20061160     0.06150
C631        C  0.25242272  0.96507168  0.08851288     0.03190
C632        C  0.27854043  0.97461735  0.10189693    -0.12960
C633        C  0.27892287  0.97942956  0.13220494     0.00690
C634        C  0.25243475  0.97766767  0.14833897    -0.11480
C635        C  0.22709874  0.96427346  0.13664442     0.03180
C636        C  0.22747230  0.95785665  0.10631301    -0.10900
H637        H  0.29877929  0.97749870  0.08905173     0.08780
H638        H  0.25263156  0.98391354  0.17129130     0.06310
H639        H  0.20902009  0.94667036  0.09649478     0.06150
C640        C  0.08868061  0.96034225  0.25326536     0.03190
C641        C  0.10716991  0.96051384  0.22786249    -0.12960
C642        C  0.13627927  0.94943319  0.22909075     0.00690
C643        C  0.14542591  0.93846939  0.25649861    -0.11480
C644        C  0.13032802  0.94590810  0.28238926     0.03180
C645        C  0.10134336  0.95553682  0.28083946    -0.10900
H646        H  0.09869006  0.96971059  0.20784510     0.08780
H647        H  0.16615991  0.92715740  0.25840791     0.06310
H648        H  0.08892116  0.95936889  0.30103869     0.06150
O649        O  0.04059952  0.96381016  0.27477656    -0.71720
O650        O  0.45708714  0.96222647  0.27223279    -0.71930
O651        O  0.49935040  0.92128857  0.27309582    -0.71790
O652        O  0.49835011  0.50464637  0.27388150    -0.71800
O653        O  0.50175946  0.50556000  0.22613662    -0.71760
O654        O  0.50071961  0.92213944  0.22529694    -0.71780
O655        O  0.45929705  0.96422467  0.22446805    -0.71720
O656        O  0.04334154  0.96373649  0.22700660    -0.71910
V657        V  0.49891504  0.96302214  0.27254109     1.35240
V658        V  0.50124228  0.96389239  0.22662627     1.35170
C659        C  0.05628489  0.96348519  0.25147147     0.77520
C660        C  0.44386917  0.96343081  0.24799228     0.77580
C661        C  0.50007553  0.90743101  0.24907537     0.77450
C662        C  0.49981040  0.51933282  0.25014287     0.77410
O663        O  0.27520752  0.96339262  0.04089951    -0.71720
O664        O  0.27378867  0.95972948  0.45754694    -0.71930
O665        O  0.27380032  0.50330532  0.99730252    -0.71790
O666        O  0.27504606  0.91991312  0.00140722    -0.71800
O667        O  0.22710748  0.91881519  0.00176678    -0.71760
O668        O  0.22592439  0.50205791  0.00039424    -0.71780
O669        O  0.22586652  0.95988195  0.45926787    -0.71720
O670        O  0.22732020  0.96070770  0.04290207    -0.71910
V671        V  0.27353581  0.96156020  0.99929940     1.35240
V672        V  0.22748334  0.96040859  0.00102312     1.35170
C673        C  0.25158127  0.96257258  0.05614853     0.77520
C674        C  0.24957913  0.95916851  0.44413653     0.77580
C675        C  0.24962387  0.51695009  0.99866159     0.77450
C676        C  0.25122926  0.90514419  0.00211724     0.77410
O677        O  0.45788376  0.68852504  0.00191281    -0.71720
O678        O  0.04143455  0.68821072  0.99840549    -0.71930
O679        O  0.50063355  0.68884439  0.04189899    -0.71790
O680        O  0.49865364  0.68835701  0.45825791    -0.71800
O681        O  0.49938352  0.73604907  0.45769273    -0.71760
O682        O  0.00134431  0.73653919  0.04105782    -0.71780
O683        O  0.04232779  0.73590501  0.99768772    -0.71720
O684        O  0.45847851  0.73622669  0.00136222    -0.71910
V685        V  0.49967926  0.68941310  0.00007229     1.35240
V686        V  0.50037581  0.73525324  0.99941547     1.35170
C687        C  0.44389833  0.71236562  0.00260150     0.77520
C688        C  0.05618658  0.71191094  0.99765823     0.77580
C689        C  0.50114891  0.71285434  0.05574692     0.77450
C690        C  0.49869238  0.71219077  0.44369248     0.77410
C691        C  0.17176825  0.95776944  0.15115185    -0.01790
C692        C  0.20226205  0.95559338  0.15757703     0.07900
C693        C  0.20946328  0.94756319  0.18658767    -0.01900
C694        C  0.18913318  0.95225805  0.20931263    -0.01900
C695        C  0.15836811  0.95100581  0.20360051     0.08030
C696        C  0.15024451  0.95096743  0.17338669    -0.02100
Br697      Br  0.11159868  0.93859846  0.16083114    -0.00650
Br698      Br  0.15824975  0.97226940  0.11376807    -0.00720
Br699      Br  0.20594293  0.96796837  0.24486763    -0.00680
Br700      Br  0.24627205  0.92874064  0.19617055    -0.00660
C701        C  0.32412215  0.95525320  0.15140120    -0.01790
C702        C  0.30689458  0.98087760  0.14870619     0.07900
C703        C  0.31283033  0.00520012  0.16676890    -0.01900
C704        C  0.33384387  0.00299525  0.18912421    -0.01900
C705        C  0.34927885  0.97659015  0.19327144     0.08030
C706        C  0.34536534  0.95323532  0.17354822    -0.02100
Br707      Br  0.36693036  0.91723990  0.17887720    -0.00650
Br708      Br  0.31639840  0.92130427  0.12733874    -0.00720
Br709      Br  0.34039502  0.03552790  0.21525051    -0.00680
Br710      Br  0.29088701  0.04094029  0.16183867    -0.00660
C711        C  0.30684242  0.92959502  0.32694310    -0.01790
C712        C  0.30210940  0.95378618  0.34564026     0.07900
C713        C  0.32107381  0.97855638  0.34341545    -0.01900
C714        C  0.34300977  0.98004800  0.32104452    -0.01900
C715        C  0.34575819  0.95700758  0.30067977     0.08030
C716        C  0.32843353  0.93132496  0.30434894    -0.02100
Br717      Br  0.33357058  0.89899621  0.27756038    -0.00650
Br718      Br  0.28306211  0.89435588  0.33174726    -0.00720
Br719      Br  0.36775227  0.01465547  0.31678499    -0.00680
Br720      Br  0.31538713  0.01165146  0.36911098    -0.00660
C721        C  0.18441657  0.97989727  0.33410549    -0.01790
C722        C  0.19296419  0.95509486  0.35044253     0.07900
C723        C  0.17710795  0.92841065  0.34804912    -0.01900
C724        C  0.15450663  0.92582834  0.32731364    -0.01900
C725        C  0.14763469  0.94996609  0.30930236     0.08030
C726        C  0.16157995  0.97742869  0.31375273    -0.02100
Br727      Br  0.15105388  0.01119890  0.29023891    -0.00650
Br728      Br  0.20533944  0.01676649  0.33836956    -0.00720
Br729      Br  0.13387222  0.88905008  0.32232370    -0.00680
Br730      Br  0.18797902  0.89482382  0.37144376    -0.00660
C731        C  0.47867445  0.64160441  0.15639635    -0.01790
C732        C  0.50371067  0.66005012  0.15290430     0.07900
C733        C  0.02909666  0.65478860  0.16954378    -0.01900
C734        C  0.02853817  0.63286076  0.19145746    -0.01900
C735        C  0.50262290  0.61611603  0.19671239     0.08030
C736        C  0.47813803  0.61958934  0.17835114    -0.02100
Br737      Br  0.44304107  0.59589270  0.18494775    -0.00650
Br738      Br  0.44426317  0.64813442  0.13287209    -0.00720
Br739      Br  0.06276666  0.62663553  0.21536797    -0.00680
Br740      Br  0.06420258  0.67856791  0.16311090    -0.00660
C741        C  0.02492744  0.78201982  0.15875707    -0.01790
C742        C  0.49824653  0.76830502  0.15082157     0.07900
C743        C  0.47126364  0.77810211  0.16288318    -0.01900
C744        C  0.47116647  0.79998182  0.18458513    -0.01900
C745        C  0.49805074  0.81204823  0.19419333     0.08030
C746        C  0.02483042  0.80389020  0.18045710    -0.02100
Br747      Br  0.06153192  0.82103878  0.19315651    -0.00650
Br748      Br  0.06175813  0.76909032  0.14154382    -0.00720
Br749      Br  0.43447517  0.81209287  0.20269037    -0.00680
Br750      Br  0.43470306  0.76006412  0.15098067    -0.00660
C751        C  0.47782697  0.78475409  0.34331176    -0.01790
C752        C  0.00235818  0.76629621  0.34666375     0.07900
C753        C  0.02828033  0.77156071  0.32971656    -0.01900
C754        C  0.02881473  0.79356098  0.30780147    -0.01900
C755        C  0.50340389  0.81035673  0.30269592     0.08030
C756        C  0.47833335  0.80677627  0.32130193    -0.02100
Br757      Br  0.44378136  0.83025480  0.31493511    -0.00650
Br758      Br  0.44267355  0.77821151  0.36717614    -0.00720
Br759      Br  0.06395696  0.79989893  0.28380621    -0.00680
Br760      Br  0.06261682  0.74760408  0.33570832    -0.00660
C761        C  0.46701158  0.64918177  0.33557742    -0.01790
C762        C  0.99377285  0.65805898  0.34825153     0.07900
C763        C  0.02013610  0.64341651  0.34103362    -0.01900
C764        C  0.02012949  0.62151352  0.31939392    -0.01900
C765        C  0.49375735  0.61428989  0.30503247     0.08030
C766        C  0.46700279  0.62727409  0.31394788    -0.02100
Br767      Br  0.43075787  0.61625148  0.29509449    -0.00650
Br768      Br  0.43077393  0.66841275  0.34663816    -0.00720
Br769      Br  0.05664407  0.60325304  0.30748125    -0.00680
Br770      Br  0.05663865  0.65520913  0.35897192    -0.00660
C771        C  0.15728290  0.64200453  0.02458742    -0.01790
C772        C  0.15096558  0.65604571  0.99769015     0.07900
C773        C  0.16376983  0.64585886  0.47126140    -0.01900
C774        C  0.18470099  0.62331921  0.47200208    -0.01900
C775        C  0.19334679  0.61142504  0.99920621     0.08030
C776        C  0.17862850  0.61975090  0.02536257    -0.02100
Br777      Br  0.18916993  0.60193103  0.06230660    -0.00650
Br778      Br  0.13825335  0.65482004  0.06049710    -0.00720
Br779      Br  0.20274526  0.60967620  0.43592292    -0.00680
Br780      Br  0.15395103  0.66416565  0.43429140    -0.00660
C781        C  0.34412465  0.63718551  0.02308639    -0.01790
C782        C  0.34642318  0.65887453  0.00079295     0.07900
C783        C  0.32855383  0.65687761  0.47580916    -0.01900
C784        C  0.30674438  0.63483762  0.47429373    -0.01900
C785        C  0.30233460  0.61489389  0.99796669     0.08030
C786        C  0.32195145  0.61526924  0.02178522    -0.02100
Br787      Br  0.31701088  0.58743901  0.05382291    -0.00650
Br788      Br  0.36987574  0.63884322  0.05642209    -0.00720
Br789      Br  0.28235883  0.63249734  0.43995668    -0.00680
Br790      Br  0.33326379  0.68517438  0.44406288    -0.00660
C791        C  0.31013350  0.79437383  0.03799786    -0.01790
C792        C  0.30549972  0.81013356  0.01167930     0.08140
C793        C  0.32426759  0.80587366  0.48705143    -0.01900
C794        C  0.34590172  0.78397581  0.48787879    -0.01900
C795        C  0.34875437  0.76642258  0.01338909     0.08030
C796        C  0.33180386  0.77255015  0.03887087    -0.02100
Br797      Br  0.33732581  0.74990926  0.07442766    -0.00650
Br798      Br  0.28552202  0.80160231  0.07225259    -0.00720
Br799      Br  0.36945933  0.77605783  0.45304095    -0.00680
Br800      Br  0.31834556  0.82799552  0.45123920    -0.00660
C801        C  0.19092393  0.79554740  0.47184771    -0.01790
C802        C  0.19763786  0.80854540  0.99897051     0.07900
C803        C  0.18090531  0.80121908  0.02446214    -0.01900
C804        C  0.15895571  0.77921433  0.02329818    -0.01900
C805        C  0.15381348  0.76461285  0.99661981     0.08030
C806        C  0.16895152  0.77359936  0.47065985    -0.02100
Br807      Br  0.16047106  0.75474452  0.43383051    -0.00650
Br808      Br  0.21310244  0.80668741  0.43676708    -0.00720
Br809      Br  0.13757496  0.76742349  0.05865018    -0.00680
Br810      Br  0.18971156  0.81980769  0.06134603    -0.00660
C811        C  0.25143176  0.87275310  0.00333415     0.03190
C812        C  0.27803959  0.85760264  0.00721660    -0.12960
C813        C  0.27804008  0.82683709  0.50829753     0.00690
C814        C  0.25154809  0.81121004  0.50538130    -0.11480
C815        C  0.22501814  0.82598287  0.50161124     0.03180
C816        C  0.22488175  0.85670009  0.00063428    -0.10900
H817        H  0.29869023  0.86955243  0.00938393     0.08780
H818        H  0.25158300  0.78738494  0.50602853     0.06310
H819        H  0.20415616  0.86791550  0.99765845     0.06150
C820        C  0.41138167  0.71227407  0.50512176     0.03190
C821        C  0.39625740  0.73873477  0.50959645    -0.12960
C822        C  0.36540294  0.73878177  0.51171080     0.00690
C823        C  0.34963979  0.71231309  0.50990814    -0.11480
C824        C  0.36429133  0.68583457  0.50514834     0.03180
C825        C  0.39519006  0.68579640  0.50285043    -0.10900
H826        H  0.40829070  0.75936370  0.51095940     0.08780
H827        H  0.32569928  0.71246022  0.51112266     0.06310
H828        H  0.40642263  0.66528807  0.49881125     0.06150
C829        C  0.24901322  0.54945109  0.49874597     0.03190
C830        C  0.22182493  0.56425649  0.49968403    -0.12960
C831        C  0.22123647  0.59498351  0.50058517     0.00690
C832        C  0.24773632  0.61095268  0.50107364    -0.11480
C833        C  0.27495452  0.59672874  0.49936007     0.03180
C834        C  0.27555210  0.56594466  0.49815251    -0.10900
H835        H  0.20115887  0.55206533  0.49944408     0.08780
H836        H  0.24715911  0.63474989  0.50183635     0.06310
H837        H  0.29663845  0.55498373  0.49677444     0.06150
C838        C  0.08877517  0.71142236  0.49710002     0.03190
C839        C  0.10517570  0.73785190  0.49662884    -0.12960
C840        C  0.13606786  0.73728763  0.49670155     0.00690
C841        C  0.15064868  0.71037060  0.49723091    -0.11480
C842        C  0.13464870  0.68394445  0.49758208     0.03180
C843        C  0.10375204  0.68443950  0.49751142    -0.10900
H844        H  0.09409266  0.75882359  0.49636525     0.08780
H845        H  0.17458658  0.70998948  0.49734174     0.06310
H846        H  0.09155289  0.66383417  0.49783056     0.06150
C847        C  0.99798787  0.71223826  0.91115081     0.03190
C848        C  0.99560095  0.68559643  0.89581120    -0.12960
C849        C  0.99506428  0.68562805  0.86500299     0.00690
C850        C  0.99684091  0.71220966  0.84942413    -0.11480
C851        C  0.99951715  0.73886644  0.86426202     0.03180
C852        C  0.00000319  0.73890177  0.89513278    -0.10900
H853        H  0.99431739  0.66484697  0.90765268     0.08780
H854        H  0.99660316  0.71211440  0.82554344     0.06310
H855        H  0.00218008  0.75962010  0.90649288     0.06150
C856        C  0.50015297  0.87489170  0.74883720     0.03190
C857        C  0.49881004  0.85961602  0.72200604    -0.12960
C858        C  0.49867954  0.82882887  0.72186365     0.00690
C859        C  0.49987479  0.81324332  0.74844450    -0.11480
C860        C  0.50160008  0.82799546  0.77525161     0.03180
C861        C  0.50167957  0.85881522  0.77545607    -0.10900
H862        H  0.49787881  0.87149616  0.70127781     0.08780
H863        H  0.49979326  0.78941717  0.74824014     0.06310
H864        H  0.50302325  0.87011048  0.79629814     0.06150
C865        C  0.00119921  0.71333557  0.58825547     0.03190
C866        C  0.99962449  0.74022902  0.60336892    -0.12960
C867        C  0.99907200  0.74057590  0.63421255     0.00690
C868        C  0.00004860  0.71413581  0.64997661    -0.11480
C869        C  0.00199935  0.68733427  0.63528415     0.03180
C870        C  0.00254576  0.68691201  0.60445742    -0.10900
H871        H  0.99879286  0.76084083  0.59132876     0.08780
H872        H  0.99966060  0.71443777  0.67386352     0.06310
H873        H  0.00403575  0.66604219  0.59326287     0.06150
C874        C  0.49896039  0.55173543  0.75042077     0.03190
C875        C  0.49618283  0.56686351  0.77725235    -0.12960
C876        C  0.49513250  0.59759223  0.77738159     0.00690
C877        C  0.49669851  0.61323237  0.75080615    -0.11480
C878        C  0.49976074  0.59853842  0.72405636     0.03180
C879        C  0.50083630  0.56782229  0.72381600    -0.10900
H880        H  0.49502239  0.55493538  0.79799508     0.08780
H881        H  0.49610830  0.63704616  0.75097842     0.06310
H882        H  0.50327606  0.55663689  0.70296141     0.06150
C883        C  0.24896666  0.95755900  0.91163746     0.03190
C884        C  0.22179642  0.95739491  0.89706623    -0.12960
C885        C  0.22109663  0.95591441  0.86632247     0.00690
C886        C  0.24752774  0.95503323  0.85001311    -0.11480
C887        C  0.27476681  0.95481829  0.86406071     0.03180
C888        C  0.27544728  0.95591607  0.89492888    -0.10900
H889        H  0.20117266  0.95834175  0.90947866     0.08780
H890        H  0.24686776  0.95429131  0.82616301     0.06310
H891        H  0.29654884  0.95562341  0.90576850     0.06150
C892        C  0.41124331  0.96430945  0.74741891     0.03190
C893        C  0.39458512  0.95986004  0.77361480    -0.12960
C894        C  0.36371841  0.96129713  0.77343667     0.00690
C895        C  0.34939855  0.96716967  0.74704149    -0.11480
C896        C  0.36556656  0.97163448  0.72080396     0.03180
C897        C  0.39649795  0.97017578  0.72099101    -0.10900
H898        H  0.40547671  0.95532011  0.79417693     0.08780
H899        H  0.32548309  0.96812442  0.74688804     0.06310
H900        H  0.40891117  0.97364562  0.70061269     0.06150
C901        C  0.25242393  0.96507091  0.58851343     0.03190
C902        C  0.27854103  0.97461782  0.60189770    -0.12960
C903        C  0.27892279  0.97943047  0.63220564     0.00690
C904        C  0.25243445  0.97766806  0.64833927    -0.11480
C905        C  0.22709916  0.96427249  0.63664465     0.03180
C906        C  0.22747352  0.95785511  0.60631333    -0.10900
H907        H  0.29877999  0.97749965  0.58905277     0.08780
H908        H  0.25263068  0.98391448  0.67129145     0.06310
H909        H  0.20902203  0.94666779  0.59649497     0.06150
C910        C  0.08868012  0.96033910  0.75326433     0.03190
C911        C  0.10716937  0.96051063  0.72786113    -0.12960
C912        C  0.13627879  0.94942961  0.72908987     0.00690
C913        C  0.14542509  0.93846532  0.75649752    -0.11480
C914        C  0.13032711  0.94590360  0.78238822     0.03180
C915        C  0.10134265  0.95553278  0.78083825    -0.10900
H916        H  0.09869006  0.96970723  0.70784436     0.08780
H917        H  0.16615943  0.92715350  0.75840677     0.06310
H918        H  0.08892041  0.95936485  0.80103769     0.06150
O919        O  0.04059943  0.96380902  0.77477592    -0.71720
O920        O  0.45708698  0.96222717  0.77223328    -0.71930
O921        O  0.49934950  0.92128845  0.77309560    -0.71790
O922        O  0.49835114  0.50464608  0.77388150    -0.71800
O923        O  0.50176019  0.50555983  0.72613661    -0.71760
O924        O  0.50071809  0.92213944  0.72529671    -0.71780
O925        O  0.45929638  0.96422559  0.72446853    -0.71720
O926        O  0.04334092  0.96373537  0.72700594    -0.71910
V927        V  0.49891492  0.96302201  0.77254102     1.35240
V928        V  0.50124163  0.96389238  0.72662618     1.35170
C929        C  0.05628452  0.96348347  0.75147061     0.77520
C930        C  0.44386876  0.96343193  0.74799293     0.77580
C931        C  0.50007422  0.90743095  0.74907510     0.77450
C932        C  0.49981145  0.51933261  0.75014292     0.77410
O933        O  0.27520941  0.96339190  0.54090025    -0.71720
O934        O  0.27378631  0.95972960  0.95754644    -0.71930
O935        O  0.27380255  0.50330499  0.49730402    -0.71790
O936        O  0.27504841  0.91991271  0.50140755    -0.71800
O937        O  0.22710983  0.91881462  0.50176657    -0.71760
O938        O  0.22592661  0.50205763  0.50039577    -0.71780
O939        O  0.22586416  0.95988179  0.95926742    -0.71720
O940        O  0.22732210  0.96070660  0.54290241    -0.71910
V941        V  0.27353804  0.96155974  0.49930002     1.35240
V942        V  0.22748557  0.96040808  0.50102351     1.35170
C943        C  0.25158301  0.96257163  0.55614907     0.77520
C944        C  0.24957679  0.95916823  0.94413608     0.77580
C945        C  0.24962615  0.51694978  0.49866328     0.77450
C946        C  0.25123169  0.90514370  0.50211716     0.77410
O947        O  0.45788678  0.68852462  0.50191283    -0.71720
O948        O  0.04143746  0.68821032  0.49840544    -0.71930
O949        O  0.50063657  0.68884398  0.54189901    -0.71790
O950        O  0.49865065  0.68835738  0.95825791    -0.71800
O951        O  0.49938052  0.73604943  0.95769269    -0.71760
O952        O  0.00134714  0.73653870  0.54105776    -0.71780
O953        O  0.04233062  0.73590461  0.49768767    -0.71720
O954        O  0.45848152  0.73622628  0.50136225    -0.71910
V955        V  0.49968227  0.68941269  0.50007230     1.35240
V956        V  0.50037883  0.73525283  0.49941549     1.35170
C957        C  0.44390134  0.71236520  0.50260151     0.77520
C958        C  0.05618944  0.71191056  0.49765817     0.77580
C959        C  0.50115192  0.71285393  0.55574692     0.77450
C960        C  0.49868941  0.71219111  0.94369245     0.77410
C961        C  0.17176864  0.95776580  0.65115141    -0.01790
C962        C  0.20226252  0.95559172  0.65757716     0.07900
C963        C  0.20946371  0.94756279  0.68658820    -0.01900
C964        C  0.18913286  0.95225682  0.70931272    -0.01900
C965        C  0.15836797  0.95100292  0.70360001     0.08030
C966        C  0.15024487  0.95096344  0.67338615    -0.02100
Br967      Br  0.11159946  0.93859289  0.66083081    -0.00650
Br968      Br  0.15824984  0.97226337  0.61376684    -0.00720
Br969      Br  0.20594086  0.96796739  0.74486846    -0.00680
Br970      Br  0.24627331  0.92874237  0.69617219    -0.00660
C971        C  0.32412195  0.95525464  0.65140262    -0.01790
C972        C  0.30689422  0.98087889  0.64870728     0.07900
C973        C  0.31282961  0.00520159  0.66676986    -0.01900
C974        C  0.33384312  0.00299711  0.68912524    -0.01900
C975        C  0.34927837  0.97659220  0.69327267     0.08030
C976        C  0.34536508  0.95323714  0.67354970    -0.02100
Br977      Br  0.36693027  0.91724187  0.67887912    -0.00650
Br978      Br  0.31639850  0.92130533  0.62734057    -0.00720
Br979      Br  0.34039391  0.03553002  0.71525130    -0.00680
Br980      Br  0.29088591  0.04094148  0.66183930    -0.00660
C981        C  0.30684175  0.92959526  0.82694295    -0.01790
C982        C  0.30210808  0.95378613  0.84564036     0.07900
C983        C  0.32107232  0.97855653  0.84341624    -0.01900
C984        C  0.34300874  0.98004863  0.82104577    -0.01900
C985        C  0.34575772  0.95700856  0.80068071     0.08030
C986        C  0.32843323  0.93132575  0.80434918    -0.02100
Br987      Br  0.33357097  0.89899752  0.77756011    -0.00650
Br988      Br  0.28306190  0.89435570  0.83174627    -0.00720
Br989      Br  0.36775115  0.01465626  0.81678726    -0.00680
Br990      Br  0.31538481  0.01165130  0.86911200    -0.00660
C991        C  0.18441345  0.97989377  0.83410606    -0.01790
C992        C  0.19296273  0.95509116  0.85044183     0.07900
C993        C  0.17710847  0.92840599  0.84804696    -0.01900
C994        C  0.15450734  0.92582316  0.82731136    -0.01900
C995        C  0.14763361  0.94996138  0.80930143     0.08030
C996        C  0.16157703  0.97742467  0.81375315    -0.02100
Br997      Br  0.15104908  0.01119526  0.79024075    -0.00650
Br998      Br  0.20533397  0.01676405  0.83837193    -0.00720
Br999      Br  0.13387564  0.88904371  0.82231943    -0.00680
Br1000     Br  0.18798201  0.89481879  0.87143985    -0.00660
C1001       C  0.47867655  0.64160439  0.65639630    -0.01790
C1002       C  0.50371283  0.66005007  0.65290458     0.07900
C1003       C  0.02909851  0.65478859  0.66954447    -0.01900
C1004       C  0.02853965  0.63286082  0.69145823    -0.01900
C1005       C  0.50262438  0.61611603  0.69671274     0.08030
C1006       C  0.47813979  0.61958934  0.67835112    -0.02100
Br1007     Br  0.44304273  0.59589273  0.68494725    -0.00650
Br1008     Br  0.44426562  0.64813441  0.63287154    -0.00720
Br1009     Br  0.06276771  0.62663570  0.71536937    -0.00680
Br1010     Br  0.06420454  0.67856787  0.66311211    -0.00660
C1011       C  0.02492893  0.78201997  0.65875717    -0.01790
C1012       C  0.49824832  0.76830496  0.65082126     0.07900
C1013       C  0.47126511  0.77810188  0.66288225    -0.01900
C1014       C  0.47116731  0.79998165  0.68458414    -0.01900
C1015       C  0.49805128  0.81204827  0.69419288     0.08030
C1016       C  0.02483129  0.80389041  0.68045714    -0.02100
Br1017     Br  0.06153236  0.82103940  0.69315719    -0.00650
Br1018     Br  0.06176006  0.76909076  0.64154465    -0.00720
Br1019     Br  0.43447555  0.81209244  0.70268862    -0.00680
Br1020     Br  0.43470493  0.76006360  0.65097902    -0.00660
C1021       C  0.47782473  0.78475413  0.84331116    -0.01790
C1022       C  0.00235598  0.76629630  0.84666358     0.07900
C1023       C  0.02827838  0.77156079  0.82971677    -0.01900
C1024       C  0.02881307  0.79356098  0.80780160    -0.01900
C1025       C  0.50340225  0.81035670  0.80269563     0.08030
C1026       C  0.47833143  0.80677625  0.82130125    -0.02100
Br1027     Br  0.44377950  0.83025471  0.81493383    -0.00650
Br1028     Br  0.44267099  0.77821162  0.86717505    -0.00720
Br1029     Br  0.06395569  0.79989898  0.78380693    -0.00680
Br1030     Br  0.06261483  0.74760427  0.83570918    -0.00660
C1031       C  0.46701017  0.64918147  0.83557699    -0.01790
C1032       C  0.99377118  0.65805903  0.84825164     0.07900
C1033       C  0.02013469  0.64341678  0.84103418    -0.01900
C1034       C  0.02012864  0.62151371  0.81939456    -0.01900
C1035       C  0.49375683  0.61428966  0.80503268     0.08030
C1036       C  0.46700198  0.62727365  0.81394756    -0.02100
Br1037     Br  0.43075751  0.61625060  0.79509359    -0.00650
Br1038     Br  0.43077214  0.66841216  0.84663699    -0.00720
Br1039     Br  0.05664359  0.60325357  0.80748251    -0.00680
Br1040     Br  0.05663685  0.65520987  0.85897296    -0.00660
C1041       C  0.15728563  0.64200463  0.52458842    -0.01790
C1042       C  0.15096838  0.65604538  0.49769091     0.07900
C1043       C  0.16376691  0.64585952  0.97126044    -0.01900
C1044       C  0.18469806  0.62331984  0.97200071    -0.01900
C1045       C  0.19334966  0.61142489  0.49920781     0.08030
C1046       C  0.17863128  0.61975109  0.52536399    -0.02100
Br1047     Br  0.18917263  0.60193177  0.56230831    -0.00650
Br1048     Br  0.13825591  0.65482062  0.56049783    -0.00720
Br1049     Br  0.20274229  0.60967743  0.93592128    -0.00680
Br1050     Br  0.15394792  0.66416681  0.93429073    -0.00660
C1051       C  0.34412787  0.63718505  0.52308711    -0.01790
C1052       C  0.34642618  0.65887396  0.50079354     0.07900
C1053       C  0.32855104  0.65687836  0.97580840    -0.01900
C1054       C  0.30674166  0.63483835  0.97429261    -0.01900
C1055       C  0.30233748  0.61489335  0.49796800     0.08030
C1056       C  0.32195462  0.61526879  0.52178630    -0.02100
Br1057     Br  0.31701441  0.58743868  0.55382413    -0.00650
Br1058     Br  0.36987936  0.63884288  0.55642249    -0.00720
Br1059     Br  0.28235637  0.63249831  0.93995533    -0.00680
Br1060     Br  0.33326118  0.68517544  0.94406241    -0.00660
C1061       C  0.31013657  0.79437366  0.53799733    -0.01790
C1062       C  0.30550280  0.81013330  0.51167870     0.08140
C1063       C  0.32426449  0.80587403  0.98705199    -0.01900
C1064       C  0.34589866  0.78397624  0.98787927    -0.01900
C1065       C  0.34875737  0.76642222  0.51338867     0.08030
C1066       C  0.33180689  0.77254995  0.53887043    -0.02100
Br1067     Br  0.33732885  0.74990923  0.57442733    -0.00650
Br1068     Br  0.28552509  0.80160230  0.57225201    -0.00720
Br1069     Br  0.36945625  0.77605841  0.95304138    -0.00680
Br1070     Br  0.31834234  0.82799591  0.95123979    -0.00660
C1071       C  0.19092087  0.79554817  0.97184828    -0.01790
C1072       C  0.19764095  0.80854470  0.49896989     0.07900
C1073       C  0.18090842  0.80121854  0.52446157    -0.01900
C1074       C  0.15895871  0.77921391  0.52329769    -0.01900
C1075       C  0.15381636  0.76461240  0.49661937     0.08030
C1076       C  0.16894858  0.77360001  0.97066033    -0.02100
Br1077     Br  0.16046815  0.75474534  0.93383090    -0.00650
Br1078     Br  0.21309929  0.80668845  0.93676767    -0.00720
Br1079     Br  0.13757798  0.76742322  0.55864976    -0.00680
Br1080     Br  0.18971484  0.81980715  0.56134542    -0.00660
C1081       C  0.75143440  0.37275241  0.50333397     0.03190
C1082       C  0.77804236  0.35760209  0.50721631    -0.12960
C1083       C  0.77803718  0.32683744  0.00829818     0.00690
C1084       C  0.75154507  0.31121054  0.00538204    -0.11480
C1085       C  0.72501523  0.32598353  0.00161188     0.03180
C1086       C  0.72488453  0.35669924  0.50063395    -0.10900
H1087       H  0.79869292  0.36955199  0.50938378     0.08780
H1088       H  0.75157983  0.28738545  0.00602935     0.06310
H1089       H  0.70415885  0.36791453  0.49765824     0.06150
C1090       C  0.91137866  0.21227438  0.00512184     0.03190
C1091       C  0.89625439  0.23873505  0.00959678    -0.12960
C1092       C  0.86539994  0.23878203  0.01171113     0.00690
C1093       C  0.84963678  0.21231338  0.00990821    -0.11480
C1094       C  0.86428832  0.18583492  0.00514815     0.03180
C1095       C  0.89518705  0.18579675  0.00285026    -0.10900
H1096       H  0.90828769  0.25936396  0.01095991     0.08780
H1097       H  0.82569627  0.21246051  0.01112269     0.06310
H1098       H  0.90641963  0.16528846  0.99881089     0.06150
C1099       C  0.74901056  0.04945139  0.99874436     0.03190
C1100       C  0.72182217  0.06425669  0.99968231    -0.12960
C1101       C  0.72123357  0.09498374  0.00058345     0.00690
C1102       C  0.74773336  0.11095298  0.00107200    -0.11480
C1103       C  0.77495162  0.09672914  0.99935854     0.03180
C1104       C  0.77554935  0.06594507  0.99815096    -0.10900
H1105       H  0.70115617  0.05206544  0.99944239     0.08780
H1106       H  0.74715608  0.13475019  0.00183481     0.06310
H1107       H  0.79663575  0.05498422  0.99677304     0.06150
C1108       C  0.58877234  0.21142287  0.99710005     0.03190
C1109       C  0.60517285  0.23785242  0.99662911    -0.12960
C1110       C  0.63606502  0.23728818  0.99670176     0.00690
C1111       C  0.65064586  0.21037114  0.99723081    -0.11480
C1112       C  0.63464589  0.18394496  0.99758174     0.03180
C1113       C  0.60374923  0.18444002  0.99751115    -0.10900
H1114       H  0.59408980  0.25882410  0.99636573     0.08780
H1115       H  0.67458376  0.20999003  0.99734156     0.06310
H1116       H  0.59155009  0.16383467  0.99783008     0.06150
C1117       C  0.49799054  0.21223787  0.41115071     0.03190
C1118       C  0.49560339  0.18559610  0.39581106    -0.12960
C1119       C  0.49506640  0.18562783  0.36500286     0.00690
C1120       C  0.49684296  0.21220948  0.34942406    -0.11480
C1121       C  0.49951942  0.23886620  0.36426200     0.03180
C1122       C  0.50000578  0.23890142  0.39513275    -0.10900
H1123       H  0.49431984  0.16484661  0.40765249     0.08780
H1124       H  0.49660492  0.21211428  0.32554337     0.06310
H1125       H  0.50218281  0.25961972  0.40649289     0.06150
C1126       C  0.00015480  0.37489183  0.24883765     0.03190
C1127       C  0.99881113  0.35961612  0.22200654    -0.12960
C1128       C  0.99868006  0.32882896  0.22186418     0.00690
C1129       C  0.99987557  0.31324342  0.24844502    -0.11480
C1130       C  0.00160165  0.32799557  0.27525207     0.03180
C1131       C  0.00168163  0.35881535  0.27545651    -0.10900
H1132       H  0.99787965  0.37149626  0.20127832     0.08780
H1133       H  0.99979364  0.28941727  0.24824069     0.06310
H1134       H  0.00302583  0.37011062  0.29629853     0.06150
C1135       C  0.50119635  0.21333603  0.08825551     0.03190
C1136       C  0.49962181  0.24022942  0.10336909    -0.12960
C1137       C  0.49906957  0.24057616  0.13421274     0.00690
C1138       C  0.50004620  0.21413600  0.14997667    -0.11480
C1139       C  0.50199679  0.18733451  0.13528408     0.03180
C1140       C  0.50254294  0.18691240  0.10445735    -0.10900
H1141       H  0.49879023  0.26084128  0.09132902     0.08780
H1142       H  0.49965850  0.21443785  0.17386359     0.06310
H1143       H  0.50403286  0.16604262  0.09326271     0.06150
C1144       C  0.99895941  0.05173552  0.25042062     0.03190
C1145       C  0.99618242  0.06686365  0.27725220    -0.12960
C1146       C  0.99513237  0.09759236  0.27738142     0.00690
C1147       C  0.99669804  0.11323246  0.25080595    -0.11480
C1148       C  0.99975965  0.09853845  0.22405613     0.03180
C1149       C  0.00083498  0.06782232  0.22381580    -0.10900
H1150       H  0.99502230  0.05493556  0.29799497     0.08780
H1151       H  0.99610802  0.13704626  0.25097821     0.06310
H1152       H  0.00327432  0.05663686  0.20296119     0.06150
C1153       C  0.74896878  0.45755980  0.41163807     0.03190
C1154       C  0.72179844  0.45739736  0.39706695    -0.12960
C1155       C  0.72109837  0.45591736  0.36632316     0.00690
C1156       C  0.74752935  0.45503496  0.35001369    -0.11480
C1157       C  0.77476846  0.45481861  0.36406118     0.03180
C1158       C  0.77544920  0.45591596  0.39492934    -0.10900
H1159       H  0.70117481  0.45834507  0.40947949     0.08780
H1160       H  0.74686925  0.45429328  0.32616359     0.06310
H1161       H  0.79655081  0.45562220  0.40576885     0.06150
C1162       C  0.91124379  0.46430695  0.24741829     0.03190
C1163       C  0.89458559  0.45985756  0.27361414    -0.12960
C1164       C  0.86371888  0.46129435  0.27343594     0.00690
C1165       C  0.84939900  0.46716637  0.24704065    -0.11480
C1166       C  0.86556704  0.47163113  0.22080310     0.03180
C1167       C  0.89649845  0.47017279  0.22099027    -0.10900
H1168       H  0.90547718  0.45531814  0.29417638     0.08780
H1169       H  0.82548354  0.46812107  0.24688717     0.06310
H1170       H  0.90891172  0.47364279  0.20061200     0.06150
C1171       C  0.75242302  0.46507164  0.08851289     0.03190
C1172       C  0.77854082  0.47461697  0.10189700    -0.12960
C1173       C  0.77892329  0.47942902  0.13220505     0.00690
C1174       C  0.75243517  0.47766723  0.14833907    -0.11480
C1175       C  0.72709899  0.46427352  0.13664437     0.03180
C1176       C  0.72747247  0.45785688  0.10631295    -0.10900
H1177       H  0.79877970  0.47749821  0.08905182     0.08780
H1178       H  0.75263203  0.48391286  0.17129147     0.06310
H1179       H  0.70902005  0.44667098  0.09649466     0.06150
C1180       C  0.58868074  0.46034322  0.25326534     0.03190
C1181       C  0.60717006  0.46051485  0.22786261    -0.12960
C1182       C  0.63627936  0.44943426  0.22909061     0.00690
C1183       C  0.64542606  0.43847043  0.25649852    -0.11480
C1184       C  0.63032822  0.44590927  0.28238917     0.03180
C1185       C  0.60134356  0.45553794  0.28083949    -0.10900
H1186       H  0.59869000  0.46971181  0.20784498     0.08780
H1187       H  0.66615987  0.42715830  0.25840778     0.06310
H1188       H  0.58892142  0.45936999  0.30103865     0.06150
O1189       O  0.54059962  0.46381053  0.27477658    -0.71720
O1190       O  0.95708728  0.46222613  0.27223307    -0.71930
O1191       O  0.99935096  0.42128868  0.27309595    -0.71790
O1192       O  0.99835023  0.00464628  0.27388150    -0.71800
O1193       O  0.00175960  0.00555990  0.22613662    -0.71760
O1194       O  0.00071999  0.42213954  0.22529707    -0.71780
O1195       O  0.95929702  0.46422432  0.22446832    -0.71720
O1196       O  0.54334165  0.46373691  0.22700662    -0.71910
V1197       V  0.99891518  0.46302225  0.27254121     1.35240
V1198       V  0.00124224  0.46389250  0.22662638     1.35170
C1199       C  0.55628499  0.46348577  0.25147151     0.77520
C1200       C  0.94386923  0.46343033  0.24799259     0.77580
C1201       C  0.00007606  0.40743111  0.24907550     0.77450
C1202       C  0.99981056  0.01933273  0.25014287     0.77410
O1203       O  0.77520778  0.46339263  0.04089951    -0.71720
O1204       O  0.77378861  0.45972923  0.45754716    -0.71930
O1205       O  0.77380012  0.00330529  0.99730298    -0.71790
O1206       O  0.77504626  0.41991313  0.00140722    -0.71800
O1207       O  0.72710767  0.41881521  0.00176689    -0.71760
O1208       O  0.72592419  0.00205788  0.00039469    -0.71780
O1209       O  0.72586646  0.45988178  0.45926806    -0.71720
O1210       O  0.72732046  0.46070775  0.04290213    -0.71910
V1211       V  0.77353600  0.46156022  0.99929941     1.35240
V1212       V  0.72748353  0.46040860  0.00102320     1.35170
C1213       C  0.75158155  0.46257261  0.05614855     0.77520
C1214       C  0.74957908  0.45916833  0.44413674     0.77580
C1215       C  0.74962368  0.01695006  0.99866202     0.77450
C1216       C  0.75122946  0.40514421  0.00211728     0.77410
O1217       O  0.95788379  0.18852498  0.00191290    -0.71720
O1218       O  0.54143458  0.18821082  0.99840548    -0.71930
O1219       O  0.00063356  0.18884442  0.04189911    -0.71790
O1220       O  0.99865369  0.18835694  0.45825796    -0.71800
O1221       O  0.99938347  0.23604899  0.45769277    -0.71760
O1222       O  0.50134425  0.23653926  0.04105779    -0.71780
O1223       O  0.54232777  0.23590512  0.99768770    -0.71720
O1224       O  0.95847848  0.23622664  0.00136231    -0.71910
V1225       V  0.99967930  0.18941311  0.00007240     1.35240
V1226       V  0.00037578  0.23525325  0.99941557     1.35170
C1227       C  0.94389833  0.21236555  0.00260158     0.77520
C1228       C  0.55618658  0.21191106  0.99765821     0.77580
C1229       C  0.00114889  0.21285437  0.05574703     0.77450
C1230       C  0.99869238  0.21219069  0.44369252     0.77410
C1231       C  0.67176842  0.45777075  0.15115171    -0.01790
C1232       C  0.70226213  0.45559373  0.15757684     0.07900
C1233       C  0.70946318  0.44756295  0.18658734    -0.01900
C1234       C  0.68913326  0.45225817  0.20931236    -0.01900
C1235       C  0.65836816  0.45100672  0.20360032     0.08030
C1236       C  0.65024452  0.45096895  0.17338646    -0.02100
Br1237     Br  0.61159847  0.43860106  0.16083058    -0.00650
Br1238     Br  0.65825040  0.47227176  0.11376815    -0.00720
Br1239     Br  0.70594356  0.46796829  0.24486719    -0.00680
Br1240     Br  0.74627155  0.42873949  0.19616994    -0.00660
C1241       C  0.82412269  0.45525271  0.15140115    -0.01790
C1242       C  0.80689499  0.48087704  0.14870632     0.07900
C1243       C  0.81283051  0.50519940  0.16676932    -0.01900
C1244       C  0.83384387  0.50299439  0.18912478    -0.01900
C1245       C  0.84927894  0.47658932  0.19327183     0.08030
C1246       C  0.84536573  0.45323470  0.17354831    -0.02100
Br1247     Br  0.86693097  0.41723937  0.17887700    -0.00650
Br1248     Br  0.81639934  0.42130403  0.12733823    -0.00720
Br1249     Br  0.84039464  0.53552679  0.21525149    -0.00680
Br1250     Br  0.79088712  0.54093956  0.16183927    -0.00660
C1251       C  0.80684224  0.42959435  0.32694339    -0.01790
C1252       C  0.80210950  0.45378550  0.34564063     0.07900
C1253       C  0.82107424  0.47855546  0.34341596    -0.01900
C1254       C  0.84301021  0.48004692  0.32104503    -0.01900
C1255       C  0.84575833  0.45700656  0.30068017     0.08030
C1256       C  0.82843337  0.43132412  0.30434926    -0.02100
Br1257     Br  0.83357008  0.39899539  0.27756061    -0.00650
Br1258     Br  0.78306148  0.39435549  0.33174739    -0.00720
Br1259     Br  0.86775309  0.51465414  0.31678566    -0.00680
Br1260     Br  0.81538797  0.51165049  0.36911166    -0.00660
C1261       C  0.68441734  0.47989802  0.33410508    -0.01790
C1262       C  0.69296432  0.45509565  0.35044256     0.07900
C1263       C  0.67710748  0.42841175  0.34804950    -0.01900
C1264       C  0.65450623  0.42582962  0.32731394    -0.01900
C1265       C  0.64763495  0.44996724  0.30930223     0.08030
C1266       C  0.66158078  0.47742962  0.31375224    -0.02100
Br1267     Br  0.65105543  0.51119975  0.29023794    -0.00650
Br1268     Br  0.70534095  0.51676688  0.33836872    -0.00720
Br1269     Br  0.63387098  0.38905175  0.32232448    -0.00680
Br1270     Br  0.68797764  0.39482501  0.37144473    -0.00660
C1271       C  0.97867437  0.14160447  0.15639649    -0.01790
C1272       C  0.00371058  0.16005020  0.15290444     0.07900
C1273       C  0.52909667  0.15478873  0.16954374    -0.01900
C1274       C  0.52853828  0.13286083  0.19145737    -0.01900
C1275       C  0.00262288  0.11611601  0.19671245     0.08030
C1276       C  0.97813799  0.11958935  0.17835123    -0.02100
Br1277     Br  0.94304106  0.09589267  0.18494782    -0.00650
Br1278     Br  0.94426307  0.14813451  0.13287228    -0.00720
Br1279     Br  0.56276681  0.12663566  0.21536782    -0.00680
Br1280     Br  0.56420252  0.17856813  0.16311085    -0.00660
C1281       C  0.52492739  0.28201991  0.15875701    -0.01790
C1282       C  0.99824660  0.26830513  0.15082167     0.07900
C1283       C  0.97126376  0.27810227  0.16288333    -0.01900
C1284       C  0.97116667  0.29998199  0.18458528    -0.01900
C1285       C  0.99805099  0.31204833  0.19419345     0.08030
C1286       C  0.52483042  0.30389029  0.18045704    -0.02100
Br1287     Br  0.56153195  0.32103883  0.19315641    -0.00650
Br1288     Br  0.56175805  0.26909039  0.14154371    -0.00720
Br1289     Br  0.93447543  0.31209312  0.20269059    -0.00680
Br1290     Br  0.93470311  0.26006438  0.15098088    -0.00660
C1291       C  0.97782712  0.28475407  0.34331179    -0.01790
C1292       C  0.50235807  0.26629613  0.34666363     0.07900
C1293       C  0.52828024  0.27156061  0.32971646    -0.01900
C1294       C  0.52881469  0.29356093  0.30780141    -0.01900
C1295       C  0.00340416  0.31035675  0.30269603     0.08030
C1296       C  0.97833359  0.30677631  0.32130200    -0.02100
Br1297     Br  0.94378168  0.33025496  0.31493519    -0.00650
Br1298     Br  0.94267366  0.27821154  0.36717611    -0.00720
Br1299     Br  0.56395694  0.29989884  0.28380617    -0.00680
Br1300     Br  0.56261669  0.24760392  0.33570819    -0.00660
C1301       C  0.96701158  0.14918167  0.33557743    -0.01790
C1302       C  0.49377286  0.15805888  0.34825146     0.07900
C1303       C  0.52013614  0.14341644  0.34103359    -0.01900
C1304       C  0.52012962  0.12151346  0.31939388    -0.01900
C1305       C  0.99375737  0.11428977  0.30503252     0.08030
C1306       C  0.96700281  0.12727398  0.31394790    -0.02100
Br1307     Br  0.93075790  0.11625138  0.29509449    -0.00650
Br1308     Br  0.93077393  0.16841266  0.34663815    -0.00720
Br1309     Br  0.55664425  0.10325305  0.30748128    -0.00680
Br1310     Br  0.55663864  0.15520911  0.35897198    -0.00660
C1311       C  0.65728281  0.14200467  0.02458744    -0.01790
C1312       C  0.65096558  0.15604586  0.99769015     0.07900
C1313       C  0.66376983  0.14585868  0.47126107    -0.01900
C1314       C  0.68470098  0.12331902  0.47200171    -0.01900
C1315       C  0.69334670  0.11142510  0.99920632     0.08030
C1316       C  0.67862836  0.11975100  0.02536265    -0.02100
Br1317     Br  0.68916967  0.10193110  0.06230670    -0.00650
Br1318     Br  0.63825320  0.15482021  0.06049707    -0.00720
Br1319     Br  0.70274531  0.10967612  0.43592253    -0.00680
Br1320     Br  0.65395113  0.16416562  0.43429111    -0.00660
C1321       C  0.84412465  0.13718537  0.02308648    -0.01790
C1322       C  0.84642318  0.15887438  0.00079303     0.07900
C1323       C  0.82855376  0.15687747  0.47580903    -0.01900
C1324       C  0.80674431  0.13483748  0.47429353    -0.01900
C1325       C  0.80233452  0.11489382  0.99796685     0.08030
C1326       C  0.82195141  0.11526914  0.02178535    -0.02100
Br1327     Br  0.81701084  0.08743894  0.05382306    -0.00650
Br1328     Br  0.86987580  0.13884304  0.05642213    -0.00720
Br1329     Br  0.78235874  0.13249734  0.43995647    -0.00680
Br1330     Br  0.83326368  0.18517438  0.44406286    -0.00660
C1331       C  0.81013354  0.29437378  0.03799784    -0.01790
C1332       C  0.80549980  0.31013350  0.01167927     0.08140
C1333       C  0.82426758  0.30587347  0.48705160    -0.01900
C1334       C  0.84590168  0.28397559  0.48787892    -0.01900
C1335       C  0.84875436  0.26642245  0.01338910     0.08030
C1336       C  0.83180385  0.27255006  0.03887087    -0.02100
Br1337     Br  0.83732574  0.24990917  0.07442768    -0.00650
Br1338     Br  0.78552206  0.30160232  0.07225255    -0.00720
Br1339     Br  0.86945929  0.27605765  0.45304108    -0.00680
Br1340     Br  0.81834558  0.32799539  0.45123940    -0.00660
C1341       C  0.69092395  0.29554721  0.47184778    -0.01790
C1342       C  0.69763795  0.30854549  0.99897042     0.07900
C1343       C  0.68090540  0.30121918  0.02446206    -0.01900
C1344       C  0.65895576  0.27921447  0.02329810    -0.01900
C1345       C  0.65381349  0.26461301  0.99661972     0.08030
C1346       C  0.66895157  0.27359916  0.47065986    -0.02100
Br1347     Br  0.66047113  0.25474441  0.43383047    -0.00650
Br1348     Br  0.71310246  0.30668733  0.43676718    -0.00720
Br1349     Br  0.63757501  0.26742363  0.05865010    -0.00680
Br1350     Br  0.68971170  0.31980774  0.06134596    -0.00660
C1351       C  0.75143193  0.37275312  0.00333414     0.03190
C1352       C  0.77803974  0.35760262  0.00721658    -0.12960
C1353       C  0.77804007  0.32683689  0.50829772     0.00690
C1354       C  0.75154808  0.31120983  0.50538145    -0.11480
C1355       C  0.72501813  0.32598264  0.50161139     0.03180
C1356       C  0.72488190  0.35670014  0.00063424    -0.10900
H1357       H  0.79869039  0.36955238  0.00938394     0.08780
H1358       H  0.75158301  0.28738473  0.50602866     0.06310
H1359       H  0.70415632  0.36791558  0.99765842     0.06150
C1360       C  0.91138163  0.21227384  0.50512178     0.03190
C1361       C  0.89625735  0.23873453  0.50959653    -0.12960
C1362       C  0.86540289  0.23878151  0.51171087     0.00690
C1363       C  0.84963975  0.21231282  0.50990816    -0.11480
C1364       C  0.86429129  0.18583432  0.50514829     0.03180
C1365       C  0.89519003  0.18579617  0.50285038    -0.10900
H1366       H  0.90829063  0.25936345  0.51095953     0.08780
H1367       H  0.82569924  0.21245994  0.51112268     0.06310
H1368       H  0.90642262  0.16528786  0.49881115     0.06150
C1369       C  0.74901317  0.04945081  0.49874565     0.03190
C1370       C  0.72182488  0.06425620  0.49968367    -0.12960
C1371       C  0.72123640  0.09498323  0.50058477     0.00690
C1372       C  0.74773625  0.11095241  0.50107327    -0.11480
C1373       C  0.77495446  0.09672848  0.49935972     0.03180
C1374       C  0.77555205  0.06594439  0.49815218    -0.10900
H1375       H  0.70115882  0.05206504  0.49944373     0.08780
H1376       H  0.74715903  0.13474962  0.50183599     0.06310
H1377       H  0.79663840  0.05498346  0.49677415     0.06150
C1378       C  0.58877517  0.21142216  0.49709988     0.03190
C1379       C  0.60517573  0.23785168  0.49662876    -0.12960
C1380       C  0.63606789  0.23728737  0.49670145     0.00690
C1381       C  0.65064868  0.21037032  0.49723073    -0.11480
C1382       C  0.63464866  0.18394419  0.49758184     0.03180
C1383       C  0.60375200  0.18443928  0.49751120    -0.10900
H1384       H  0.59409272  0.25882338  0.49636524     0.08780
H1385       H  0.67458657  0.20998917  0.49734154     0.06310
H1386       H  0.59155283  0.16383396  0.49783029     0.06150
C1387       C  0.49798791  0.21223828  0.91115077     0.03190
C1388       C  0.49560096  0.18559645  0.89581117    -0.12960
C1389       C  0.49506431  0.18562806  0.86500295     0.00690
C1390       C  0.49684099  0.21220967  0.84942408    -0.11480
C1391       C  0.49951725  0.23886645  0.86426197     0.03180
C1392       C  0.50000327  0.23890178  0.89513274    -0.10900
H1393       H  0.49431738  0.16484699  0.90765265     0.08780
H1394       H  0.49660325  0.21211440  0.82554339     0.06310
H1395       H  0.50218019  0.25962011  0.90649283     0.06150
C1396       C  0.00015284  0.37489172  0.74883722     0.03190
C1397       C  0.99880990  0.35961603  0.72200607    -0.12960
C1398       C  0.99867935  0.32882887  0.72186369     0.00690
C1399       C  0.99987457  0.31324333  0.74844456    -0.11480
C1400       C  0.00159988  0.32799549  0.77525166     0.03180
C1401       C  0.00167942  0.35881525  0.77545610    -0.10900
H1402       H  0.99787870  0.37149616  0.70127783     0.08780
H1403       H  0.99979301  0.28941719  0.74824021     0.06310
H1404       H  0.00302311  0.37011053  0.79629816     0.06150
C1405       C  0.50119923  0.21333557  0.58825539     0.03190
C1406       C  0.49962456  0.24022904  0.60336883    -0.12960
C1407       C  0.49907208  0.24057592  0.63421246     0.00690
C1408       C  0.50004863  0.21413585  0.64997654    -0.11480
C1409       C  0.50199935  0.18733429  0.63528410     0.03180
C1410       C  0.50254574  0.18691202  0.60445737    -0.10900
H1411       H  0.49879296  0.26084083  0.59132866     0.08780
H1412       H  0.49966066  0.21443782  0.67386345     0.06310
H1413       H  0.50403571  0.16604219  0.59326282     0.06150
C1414       C  0.99896018  0.05173545  0.75042086     0.03190
C1415       C  0.99618266  0.06686353  0.77725244    -0.12960
C1416       C  0.99513240  0.09759225  0.77738169     0.00690
C1417       C  0.99669844  0.11323239  0.75080625    -0.11480
C1418       C  0.99976062  0.09853844  0.72405645     0.03180
C1419       C  0.00083612  0.06782231  0.72381609    -0.10900
H1420       H  0.99502220  0.05493540  0.79799517     0.08780
H1421       H  0.99610827  0.13704618  0.75097853     0.06310
H1422       H  0.00327585  0.05663691  0.70296150     0.06150
C1423       C  0.74896670  0.45755892  0.91163755     0.03190
C1424       C  0.72179642  0.45739471  0.89706640    -0.12960
C1425       C  0.72109658  0.45591416  0.86632265     0.00690
C1426       C  0.74752764  0.45503304  0.85001322    -0.11480
C1427       C  0.77476674  0.45481819  0.86406077     0.03180
C1428       C  0.77544728  0.45591602  0.89492892    -0.10900
H1429       H  0.70117269  0.45834150  0.90947887     0.08780
H1430       H  0.74686761  0.45429111  0.82616313     0.06310
H1431       H  0.79654887  0.45562342  0.90576850     0.06150
C1432       C  0.91124308  0.46430946  0.74741889     0.03190
C1433       C  0.89458489  0.45986001  0.77361476    -0.12960
C1434       C  0.86371819  0.46129723  0.77343664     0.00690
C1435       C  0.84939834  0.46716992  0.74704149    -0.11480
C1436       C  0.86556636  0.47163477  0.72080397     0.03180
C1437       C  0.89649775  0.47017595  0.72099102    -0.10900
H1438       H  0.90547646  0.45531997  0.79417688     0.08780
H1439       H  0.82548289  0.46812476  0.74688804     0.06310
H1440       H  0.90891098  0.47364581  0.70061271     0.06150
C1441       C  0.75242383  0.46507084  0.58851360     0.03190
C1442       C  0.77854082  0.47461809  0.60189781    -0.12960
C1443       C  0.77892257  0.47943079  0.63220574     0.00690
C1444       C  0.75243425  0.47766815  0.64833939    -0.11480
C1445       C  0.72709912  0.46427220  0.63664484     0.03180
C1446       C  0.72747354  0.45785474  0.60631354    -0.10900
H1447       H  0.79877975  0.47750010  0.58905285     0.08780
H1448       H  0.75263044  0.48391463  0.67129155     0.06310
H1449       H  0.70902221  0.44666711  0.59649522     0.06150
C1450       C  0.58868037  0.46033876  0.75326442     0.03190
C1451       C  0.60716963  0.46051009  0.72786119    -0.12960
C1452       C  0.63627900  0.44942886  0.72909013     0.00690
C1453       C  0.64542518  0.43846462  0.75649780    -0.11480
C1454       C  0.63032716  0.44590300  0.78238846     0.03180
C1455       C  0.60134279  0.45553236  0.78083835    -0.10900
H1456       H  0.59869051  0.46970657  0.70784449     0.08780
H1457       H  0.66615954  0.42715276  0.75840713     0.06310
H1458       H  0.58892050  0.45936457  0.80103780     0.06150
O1459       O  0.54059969  0.46380901  0.77477591    -0.71720
O1460       O  0.95708674  0.46222711  0.77223327    -0.71930
O1461       O  0.99934937  0.42128849  0.77309558    -0.71790
O1462       O  0.99835091  0.00464611  0.77388159    -0.71800
O1463       O  0.00175984  0.00555986  0.72613669    -0.71760
O1464       O  0.00071795  0.42213948  0.72529670    -0.71780
O1465       O  0.95929611  0.46422551  0.72446851    -0.71720
O1466       O  0.54334126  0.46373530  0.72700594    -0.71910
V1467       V  0.99891468  0.46302206  0.77254099     1.35240
V1468       V  0.00124136  0.46389243  0.72662615     1.35170
C1469       C  0.55628481  0.46348335  0.75147061     0.77520
C1470       C  0.94386851  0.46343186  0.74799292     0.77580
C1471       C  0.00007410  0.40743099  0.74907509     0.77450
C1472       C  0.99981118  0.01933263  0.75014301     0.77410
O1473       O  0.77520932  0.46339176  0.54090044    -0.71720
O1474       O  0.77378644  0.45972963  0.95754646    -0.71930
O1475       O  0.77380250  0.00330470  0.49730389    -0.71790
O1476       O  0.77504835  0.41991252  0.50140780    -0.71800
O1477       O  0.72710978  0.41881441  0.50176674    -0.71760
O1478       O  0.72592657  0.00205734  0.50039567    -0.71780
O1479       O  0.72586428  0.45988176  0.95926752    -0.71720
O1480       O  0.72732201  0.46070637  0.54290259    -0.71910
V1481       V  0.77353797  0.46155955  0.49930023     1.35240
V1482       V  0.72748550  0.46040788  0.50102370     1.35170
C1483       C  0.75158292  0.46257147  0.55614926     0.77520
C1484       C  0.74957689  0.45916821  0.94413615     0.77580
C1485       C  0.74962610  0.01694949  0.49866309     0.77450
C1486       C  0.75123164  0.40514350  0.50211737     0.77410
O1487       O  0.95788679  0.18852447  0.50191286    -0.71720
O1488       O  0.54143741  0.18821021  0.49840534    -0.71930
O1489       O  0.00063658  0.18884393  0.54189907    -0.71790
O1490       O  0.99865070  0.18835739  0.95825801    -0.71800
O1491       O  0.99938050  0.23604944  0.95769278    -0.71760
O1492       O  0.50134720  0.23653869  0.54105767    -0.71780
O1493       O  0.54233067  0.23590450  0.49768757    -0.71720
O1494       O  0.95848145  0.23622613  0.50136227    -0.71910
V1495       V  0.99968230  0.18941263  0.50007235     1.35240
V1496       V  0.00037876  0.23525277  0.49941553     1.35170
C1497       C  0.94390131  0.21236502  0.50260153     0.77520
C1498       C  0.55618944  0.21191042  0.49765806     0.77580
C1499       C  0.00115187  0.21285389  0.55574697     0.77450
C1500       C  0.99868942  0.21219112  0.94369255     0.77410
C1501       C  0.67176870  0.45776468  0.65115168    -0.01790
C1502       C  0.70226263  0.45559114  0.65757742     0.07900
C1503       C  0.70946397  0.44756247  0.68658849    -0.01900
C1504       C  0.68913307  0.45225629  0.70931303    -0.01900
C1505       C  0.65836820  0.45100206  0.70360031     0.08030
C1506       C  0.65024507  0.45096221  0.67338649    -0.02100
Br1507     Br  0.61159976  0.43859103  0.66083141    -0.00650
Br1508     Br  0.65824958  0.47226168  0.61376701    -0.00720
Br1509     Br  0.70594089  0.46796683  0.74486887    -0.00680
Br1510     Br  0.74627386  0.42874260  0.69617250    -0.00660
C1511       C  0.82412179  0.45525502  0.65140262    -0.01790
C1512       C  0.80689400  0.48087925  0.64870735     0.07900
C1513       C  0.81282936  0.50520193  0.66676997    -0.01900
C1514       C  0.83384290  0.50299744  0.68912532    -0.01900
C1515       C  0.84927819  0.47659255  0.69327269     0.08030
C1516       C  0.84536493  0.45323752  0.67354968    -0.02100
Br1517     Br  0.86693015  0.41724226  0.67887903    -0.00650
Br1518     Br  0.81639837  0.42130573  0.62734054    -0.00720
Br1519     Br  0.84039367  0.53553032  0.71525142    -0.00680
Br1520     Br  0.79088557  0.54094177  0.66183950    -0.00660
C1521       C  0.80684162  0.42959525  0.82694292    -0.01790
C1522       C  0.80210797  0.45378609  0.84564036     0.07900
C1523       C  0.82107217  0.47855652  0.84341624    -0.01900
C1524       C  0.84300854  0.48004867  0.82104574    -0.01900
C1525       C  0.84575751  0.45700863  0.80068065     0.08030
C1526       C  0.82843304  0.43132580  0.80434910    -0.02100
Br1527     Br  0.83357073  0.39899764  0.77755993    -0.00650
Br1528     Br  0.78306183  0.39435565  0.83174623    -0.00720
Br1529     Br  0.86775093  0.51465632  0.81678724    -0.00680
Br1530     Br  0.81538464  0.51165128  0.86911202    -0.00660
C1531       C  0.68441319  0.47989340  0.83410644    -0.01790
C1532       C  0.69296265  0.45509078  0.85044209     0.07900
C1533       C  0.67710861  0.42840550  0.84804712    -0.01900
C1534       C  0.65450751  0.42582258  0.82731152    -0.01900
C1535       C  0.64763359  0.44996082  0.80930168     0.08030
C1536       C  0.66157681  0.47742420  0.81375351    -0.02100
Br1537     Br  0.65104872  0.51119477  0.79024115    -0.00650
Br1538     Br  0.70533343  0.51676381  0.83837247    -0.00720
Br1539     Br  0.63387611  0.38904300  0.82231943    -0.00680
Br1540     Br  0.68798243  0.39481831  0.87143988    -0.00660
C1541       C  0.97867647  0.14160437  0.65639636    -0.01790
C1542       C  0.00371276  0.16005005  0.65290464     0.07900
C1543       C  0.52909854  0.15478864  0.66954444    -0.01900
C1544       C  0.52853973  0.13286086  0.69145819    -0.01900
C1545       C  0.00262427  0.11611603  0.69671283     0.08030
C1546       C  0.97813970  0.11958934  0.67835120    -0.02100
Br1547     Br  0.94304264  0.09589274  0.68494731    -0.00650
Br1548     Br  0.94426556  0.14813437  0.63287157    -0.00720
Br1549     Br  0.56276780  0.12663579  0.71536932    -0.00680
Br1550     Br  0.56420454  0.17856796  0.66311206    -0.00660
C1551       C  0.52492910  0.28201997  0.65875703    -0.01790
C1552       C  0.99824820  0.26830493  0.65082132     0.07900
C1553       C  0.97126498  0.27810184  0.66288230    -0.01900
C1554       C  0.97116715  0.29998161  0.68458419    -0.01900
C1555       C  0.99805110  0.31204825  0.69419294     0.08030
C1556       C  0.52483153  0.30389040  0.68045702    -0.02100
Br1557     Br  0.56153264  0.32103934  0.69315701    -0.00650
Br1558     Br  0.56176018  0.26909073  0.64154443    -0.00720
Br1559     Br  0.93447537  0.31209238  0.70268865    -0.00680
Br1560     Br  0.93470481  0.26006353  0.65097906    -0.00660
C1561       C  0.97782459  0.28475411  0.84331122    -0.01790
C1562       C  0.50235616  0.26629630  0.84666353     0.07900
C1563       C  0.52827857  0.27156072  0.82971672    -0.01900
C1564       C  0.52881332  0.29356091  0.80780154    -0.01900
C1565       C  0.00340207  0.31035671  0.80269568     0.08030
C1566       C  0.97833126  0.30677623  0.82130131    -0.02100
Br1567     Br  0.94377930  0.33025465  0.81493390    -0.00650
Br1568     Br  0.94267086  0.27821154  0.86717511    -0.00720
Br1569     Br  0.56395596  0.29989882  0.78380688    -0.00680
Br1570     Br  0.56261497  0.24760413  0.83570915    -0.00660
C1571       C  0.96701013  0.14918146  0.83557713    -0.01790
C1572       C  0.49377123  0.15805904  0.84825160     0.07900
C1573       C  0.52013473  0.14341677  0.84103419    -0.01900
C1574       C  0.52012872  0.12151369  0.81939457    -0.01900
C1575       C  0.99375675  0.11428967  0.80503278     0.08030
C1576       C  0.96700192  0.12727365  0.81394769    -0.02100
Br1577     Br  0.93075743  0.11625060  0.79509376    -0.00650
Br1578     Br  0.93077210  0.16841213  0.84663718    -0.00720
Br1579     Br  0.55664368  0.10325354  0.80748260    -0.00680
Br1580     Br  0.55663687  0.15520984  0.85897305    -0.00660
C1581       C  0.65728548  0.14200422  0.52458806    -0.01790
C1582       C  0.65096831  0.15604510  0.49769059     0.07900
C1583       C  0.66376696  0.14585965  0.97126047    -0.01900
C1584       C  0.68469805  0.12331991  0.97200079    -0.01900
C1585       C  0.69334959  0.11142459  0.49920741     0.08030
C1586       C  0.67863113  0.11975068  0.52536359    -0.02100
Br1587     Br  0.68917237  0.10193120  0.56230787    -0.00650
Br1588     Br  0.63825566  0.15482006  0.56049747    -0.00720
Br1589     Br  0.70274229  0.10967742  0.93592141    -0.00680
Br1590     Br  0.65394809  0.16416696  0.93429074    -0.00660
C1591       C  0.84412786  0.13718471  0.52308688    -0.01790
C1592       C  0.84642615  0.15887372  0.50079339     0.07900
C1593       C  0.82855101  0.15687823  0.97580851    -0.01900
C1594       C  0.80674159  0.13483826  0.97429275    -0.01900
C1595       C  0.80233743  0.11489310  0.49796772     0.08030
C1596       C  0.82195460  0.11526845  0.52178600    -0.02100
Br1597     Br  0.81701443  0.08743822  0.55382373    -0.00650
Br1598     Br  0.86987940  0.13884238  0.55642223    -0.00720
Br1599     Br  0.78235627  0.13249824  0.93995549    -0.00680
Br1600     Br  0.83326115  0.18517529  0.94406250    -0.00660
C1601       C  0.81013653  0.29437340  0.53799747    -0.01790
C1602       C  0.80550279  0.31013309  0.51167887     0.08140
C1603       C  0.82426457  0.30587393  0.98705197    -0.01900
C1604       C  0.84589869  0.28397609  0.98787927    -0.01900
C1605       C  0.84875731  0.26642195  0.51338877     0.08030
C1606       C  0.83180683  0.27254966  0.53887054    -0.02100
Br1607     Br  0.83732876  0.24990888  0.57442741    -0.00650
Br1608     Br  0.78552506  0.30160201  0.57225217    -0.00720
Br1609     Br  0.86945628  0.27605820  0.95304139    -0.00680
Br1610     Br  0.81834247  0.32799581  0.95123976    -0.00660
C1611       C  0.69092092  0.29554829  0.97184819    -0.01790
C1612       C  0.69764096  0.30854446  0.49896999     0.07900
C1613       C  0.68090843  0.30121822  0.52446166    -0.01900
C1614       C  0.65895875  0.27921358  0.52329772    -0.01900
C1615       C  0.65381642  0.26461213  0.49661935     0.08030
C1616       C  0.66894859  0.27360017  0.97066024    -0.02100
Br1617     Br  0.66046811  0.25474554  0.93383080    -0.00650
Br1618     Br  0.71309933  0.30668857  0.93676758    -0.00720
Br1619     Br  0.63757803  0.26742278  0.55864976    -0.00680
Br1620     Br  0.68971483  0.31980674  0.56134555    -0.00660
C1621       C  0.75143451  0.87275251  0.50333376     0.03190
C1622       C  0.77804246  0.85760217  0.50721611    -0.12960
C1623       C  0.77803707  0.82683745  0.00829826     0.00690
C1624       C  0.75154499  0.81121051  0.00538214    -0.11480
C1625       C  0.72501512  0.82598345  0.00161195     0.03180
C1626       C  0.72488462  0.85669937  0.50063374    -0.10900
H1627       H  0.79869302  0.86955206  0.50938358     0.08780
H1628       H  0.75157978  0.78738541  0.00602948     0.06310
H1629       H  0.70415896  0.86791467  0.49765803     0.06150
C1630       C  0.91137868  0.71227451  0.00512186     0.03190
C1631       C  0.89625444  0.73873519  0.00959682    -0.12960
C1632       C  0.86539998  0.73878219  0.01171120     0.00690
C1633       C  0.84963680  0.71231355  0.00990830    -0.11480
C1634       C  0.86428832  0.68583508  0.00514822     0.03180
C1635       C  0.89518704  0.68579689  0.00285029    -0.10900
H1636       H  0.90828775  0.75936409  0.01095993     0.08780
H1637       H  0.82569629  0.71246069  0.01112281     0.06310
H1638       H  0.90641960  0.66528859  0.99881090     0.06150
C1639       C  0.74901071  0.54945142  0.99874441     0.03190
C1640       C  0.72182230  0.56425667  0.99968238    -0.12960
C1641       C  0.72123363  0.59498370  0.00058353     0.00690
C1642       C  0.74773339  0.61095300  0.00107211    -0.11480
C1643       C  0.77495168  0.59672921  0.99935862     0.03180
C1644       C  0.77554947  0.56594514  0.99815102    -0.10900
H1645       H  0.70115632  0.55206538  0.99944244     0.08780
H1646       H  0.74715606  0.63475021  0.00183494     0.06310
H1647       H  0.79663589  0.55498434  0.99677308     0.06150
C1648       C  0.58877231  0.71142271  0.99710000     0.03190
C1649       C  0.60517284  0.73785226  0.99662909    -0.12960
C1650       C  0.63606500  0.73728799  0.99670178     0.00690
C1651       C  0.65064583  0.71037095  0.99723085    -0.11480
C1652       C  0.63464585  0.68394478  0.99758175     0.03180
C1653       C  0.60374918  0.68443985  0.99751111    -0.10900
H1654       H  0.59408980  0.75882394  0.99636570     0.08780
H1655       H  0.67458372  0.70998983  0.99734163     0.06310
H1656       H  0.59155003  0.66383452  0.99783003     0.06150
C1657       C  0.49799068  0.71223796  0.41115076     0.03190
C1658       C  0.49560353  0.68559619  0.39581111    -0.12960
C1659       C  0.49506655  0.68562791  0.36500291     0.00690
C1660       C  0.49684312  0.71220956  0.34942411    -0.11480
C1661       C  0.49951958  0.73886628  0.36426204     0.03180
C1662       C  0.50000593  0.73890151  0.39513280    -0.10900
H1663       H  0.49431996  0.66484670  0.40765254     0.08780
H1664       H  0.49660507  0.71211436  0.32554343     0.06310
H1665       H  0.50218296  0.75961981  0.40649294     0.06150
C1666       C  0.00015426  0.87489173  0.24883757     0.03190
C1667       C  0.99881066  0.85961600  0.22200647    -0.12960
C1668       C  0.99867974  0.82882884  0.22186414     0.00690
C1669       C  0.99987531  0.81324333  0.24844499    -0.11480
C1670       C  0.00160131  0.82799551  0.27525203     0.03180
C1671       C  0.00168115  0.85881528  0.27545644    -0.10900
H1672       H  0.99787915  0.87149612  0.20127824     0.08780
H1673       H  0.99979350  0.78941718  0.24824068     0.06310
H1674       H  0.00302532  0.87011057  0.29629845     0.06150
C1675       C  0.50119641  0.71333596  0.08825545     0.03190
C1676       C  0.49962187  0.74022935  0.10336903    -0.12960
C1677       C  0.49906966  0.74057609  0.13421268     0.00690
C1678       C  0.50004633  0.71413593  0.14997661    -0.11480
C1679       C  0.50199691  0.68733445  0.13528402     0.03180
C1680       C  0.50254303  0.68691233  0.10445729    -0.10900
H1681       H  0.49879026  0.76084121  0.09132896     0.08780
H1682       H  0.49965864  0.71443778  0.17386353     0.06310
H1683       H  0.50403294  0.66604255  0.09326264     0.06150
C1684       C  0.99895893  0.55173560  0.25042067     0.03190
C1685       C  0.99618199  0.56686376  0.27725224    -0.12960
C1686       C  0.99513209  0.59759247  0.27738144     0.00690
C1687       C  0.99669784  0.61323256  0.25080595    -0.11480
C1688       C  0.99975940  0.59853851  0.22405615     0.03180
C1689       C  0.00083458  0.56782237  0.22381584    -0.10900
H1690       H  0.99502182  0.55493568  0.29799502     0.08780
H1691       H  0.99610793  0.63704636  0.25097820     0.06310
H1692       H  0.00327391  0.55663690  0.20296125     0.06150
C1693       C  0.74896881  0.95755984  0.41163785     0.03190
C1694       C  0.72179843  0.95739699  0.39706681    -0.12960
C1695       C  0.72109828  0.95591693  0.36632302     0.00690
C1696       C  0.74752923  0.95503488  0.35001348    -0.11480
C1697       C  0.77476840  0.95481892  0.36406087     0.03180
C1698       C  0.77544922  0.95591633  0.39492904    -0.10900
H1699       H  0.70117481  0.95834442  0.40947941     0.08780
H1700       H  0.74686906  0.95429317  0.32616338     0.06310
H1701       H  0.79655086  0.95562288  0.40576848     0.06150
C1702       C  0.91124373  0.96430769  0.24741792     0.03190
C1703       C  0.89458548  0.95985844  0.27361378    -0.12960
C1704       C  0.86371878  0.96129535  0.27343555     0.00690
C1705       C  0.84939895  0.96716740  0.24704024    -0.11480
C1706       C  0.86556701  0.97163204  0.22080270     0.03180
C1707       C  0.89649843  0.97017355  0.22098988    -0.10900
H1708       H  0.90547703  0.95531898  0.29417603     0.08780
H1709       H  0.82548349  0.96812216  0.24688675     0.06310
H1710       H  0.90891172  0.97364339  0.20061160     0.06150
C1711       C  0.75242272  0.96507166  0.08851287     0.03190
C1712       C  0.77854044  0.97461730  0.10189691    -0.12960
C1713       C  0.77892288  0.97942951  0.13220493     0.00690
C1714       C  0.75243477  0.97766763  0.14833896    -0.11480
C1715       C  0.72709874  0.96427345  0.13664441     0.03180
C1716       C  0.72747229  0.95785664  0.10631300    -0.10900
H1717       H  0.79877929  0.97749864  0.08905171     0.08780
H1718       H  0.75263159  0.98391349  0.17129129     0.06310
H1719       H  0.70902007  0.94667038  0.09649477     0.06150
C1720       C  0.58868060  0.96034230  0.25326534     0.03190
C1721       C  0.60716991  0.96051388  0.22786248    -0.12960
C1722       C  0.63627927  0.94943325  0.22909074     0.00690
C1723       C  0.64542591  0.93846946  0.25649861    -0.11480
C1724       C  0.63032801  0.94590818  0.28238925     0.03180
C1725       C  0.60134336  0.95553689  0.28083945    -0.10900
H1726       H  0.59869005  0.96971064  0.20784508     0.08780
H1727       H  0.66615990  0.92715746  0.25840791     0.06310
H1728       H  0.58892115  0.95936896  0.30103867     0.06150
O1729       O  0.54059951  0.96381018  0.27477654    -0.71720
O1730       O  0.95708714  0.96222646  0.27223281    -0.71930
O1731       O  0.99935040  0.92128856  0.27309585    -0.71790
O1732       O  0.99834993  0.50464638  0.27388157    -0.71800
O1733       O  0.00175914  0.50556001  0.22613668    -0.71760
O1734       O  0.00071963  0.92213943  0.22529697    -0.71780
O1735       O  0.95929706  0.96422465  0.22446807    -0.71720
O1736       O  0.54334153  0.96373650  0.22700658    -0.71910
V1737       V  0.99891505  0.96302213  0.27254112     1.35240
V1738       V  0.00124229  0.96389238  0.22662630     1.35170
C1739       C  0.55628488  0.96348522  0.25147145     0.77520
C1740       C  0.94386918  0.96343080  0.24799230     0.77580
C1741       C  0.00007554  0.90743100  0.24907540     0.77450
C1742       C  0.99981011  0.51933282  0.25014294     0.77410
O1743       O  0.77520750  0.96339260  0.04089949    -0.71720
O1744       O  0.77378871  0.95972938  0.45754692    -0.71930
O1745       O  0.77380033  0.50330533  0.99730301    -0.71790
O1746       O  0.77504604  0.91991310  0.00140721    -0.71800
O1747       O  0.72710746  0.91881516  0.00176677    -0.71760
O1748       O  0.72592440  0.50205790  0.00039475    -0.71780
O1749       O  0.72586656  0.95988184  0.45926786    -0.71720
O1750       O  0.72732019  0.96070767  0.04290206    -0.71910
V1751       V  0.77353578  0.96156018  0.99929938     1.35240
V1752       V  0.72748331  0.96040856  0.00102311     1.35170
C1753       C  0.75158126  0.96257256  0.05614852     0.77520
C1754       C  0.74957917  0.95916841  0.44413652     0.77580
C1755       C  0.74962387  0.51695009  0.99866206     0.77450
C1756       C  0.75122925  0.90514417  0.00211723     0.77410
O1757       O  0.95788378  0.68852504  0.00191288    -0.71720
O1758       O  0.54143453  0.68821071  0.99840541    -0.71930
O1759       O  0.00063356  0.68884439  0.04189907    -0.71790
O1760       O  0.99865359  0.68835695  0.45825794    -0.71800
O1761       O  0.99938337  0.73604900  0.45769278    -0.71760
O1762       O  0.50134429  0.73653919  0.04105773    -0.71780
O1763       O  0.54232777  0.73590500  0.99768762    -0.71720
O1764       O  0.95847853  0.73622670  0.00136231    -0.71910
V1765       V  0.99967928  0.68941311  0.00007237     1.35240
V1766       V  0.00037583  0.73525324  0.99941557     1.35170
C1767       C  0.94389835  0.71236563  0.00260158     0.77520
C1768       C  0.55618656  0.71191094  0.99765813     0.77580
C1769       C  0.00114893  0.71285433  0.05574700     0.77450
C1770       C  0.99869228  0.71219071  0.44369252     0.77410
C1771       C  0.67176825  0.95776950  0.15115184    -0.01790
C1772       C  0.70226205  0.95559339  0.15757702     0.07900
C1773       C  0.70946327  0.94756318  0.18658765    -0.01900
C1774       C  0.68913317  0.95225807  0.20931261    -0.01900
C1775       C  0.65836811  0.95100586  0.20360050     0.08030
C1776       C  0.65024451  0.95096749  0.17338668    -0.02100
Br1777     Br  0.61159867  0.93859855  0.16083111    -0.00650
Br1778     Br  0.65824977  0.97226950  0.11376807    -0.00720
Br1779     Br  0.70594295  0.96796839  0.24486760    -0.00680
Br1780     Br  0.74627202  0.92874059  0.19617053    -0.00660
C1781       C  0.82412218  0.95525315  0.15140117    -0.01790
C1782       C  0.80689461  0.98087755  0.14870617     0.07900
C1783       C  0.81283035  0.00520006  0.16676889    -0.01900
C1784       C  0.83384389  0.00299519  0.18912420    -0.01900
C1785       C  0.84927888  0.97659009  0.19327141     0.08030
C1786       C  0.84536537  0.95323527  0.17354819    -0.02100
Br1787     Br  0.86693040  0.91723985  0.17887716    -0.00650
Br1788     Br  0.81639843  0.92130423  0.12733870    -0.00720
Br1789     Br  0.84039503  0.03552784  0.21525051    -0.00680
Br1790     Br  0.79088703  0.04094023  0.16183866    -0.00660
C1791       C  0.80684241  0.92959495  0.32694306    -0.01790
C1792       C  0.80210940  0.95378610  0.34564023     0.07900
C1793       C  0.82107383  0.97855630  0.34341543    -0.01900
C1794       C  0.84300978  0.98004792  0.32104450    -0.01900
C1795       C  0.84575819  0.95700750  0.30067975     0.08030
C1796       C  0.82843352  0.93132489  0.30434891    -0.02100
Br1797     Br  0.83357056  0.89899615  0.27756034    -0.00650
Br1798     Br  0.78306208  0.89435582  0.33174721    -0.00720
Br1799     Br  0.86775229  0.01465539  0.31678498    -0.00680
Br1800     Br  0.81538715  0.01165137  0.36911098    -0.00660
C1801       C  0.68441661  0.97989729  0.33410548    -0.01790
C1802       C  0.69296419  0.95509487  0.35044253     0.07900
C1803       C  0.67710791  0.92841069  0.34804913    -0.01900
C1804       C  0.65450659  0.92582840  0.32731365    -0.01900
C1805       C  0.64763468  0.94996615  0.30930236     0.08030
C1806       C  0.66157999  0.97742873  0.31375271    -0.02100
Br1807     Br  0.65105395  0.01119896  0.29023888    -0.00650
Br1808     Br  0.70533953  0.01676648  0.33836954    -0.00720
Br1809     Br  0.63387212  0.88905017  0.32232372    -0.00680
Br1810     Br  0.68797893  0.89482384  0.37144378    -0.00660
C1811       C  0.97867436  0.64160441  0.15639638    -0.01790
C1812       C  0.00371061  0.66005009  0.15290435     0.07900
C1813       C  0.52909675  0.65478867  0.16954371    -0.01900
C1814       C  0.52853831  0.63286082  0.19145739    -0.01900
C1815       C  0.00262273  0.61611601  0.19671245     0.08030
C1816       C  0.97813789  0.61958934  0.17835117    -0.02100
Br1817     Br  0.94304089  0.59589275  0.18494774    -0.00650
Br1818     Br  0.94426312  0.64813446  0.13287207    -0.00720
Br1819     Br  0.56276683  0.62663564  0.21536786    -0.00680
Br1820     Br  0.56420264  0.67856802  0.16311080    -0.00660
C1821       C  0.52492742  0.78201986  0.15875698    -0.01790
C1822       C  0.99824654  0.76830499  0.15082165     0.07900
C1823       C  0.97126366  0.77810208  0.16288326    -0.01900
C1824       C  0.97116648  0.79998179  0.18458521    -0.01900
C1825       C  0.99805076  0.81204819  0.19419342     0.08030
C1826       C  0.52483040  0.80389024  0.18045701    -0.02100
Br1827     Br  0.56153189  0.82103883  0.19315641    -0.00650
Br1828     Br  0.56175811  0.76909037  0.14154373    -0.00720
Br1829     Br  0.93447519  0.81209284  0.20269046    -0.00680
Br1830     Br  0.93470308  0.76006410  0.15098076    -0.00660
C1831       C  0.97782696  0.78475411  0.34331184    -0.01790
C1832       C  0.50235819  0.76629620  0.34666367     0.07900
C1833       C  0.52828034  0.77156069  0.32971646    -0.01900
C1834       C  0.52881472  0.79356097  0.30780138    -0.01900
C1835       C  0.00340390  0.81035675  0.30269601     0.08030
C1836       C  0.97833335  0.80677629  0.32130200    -0.02100
Br1837     Br  0.94378136  0.83025483  0.31493517    -0.00650
Br1838     Br  0.94267353  0.77821154  0.36717620    -0.00720
Br1839     Br  0.56395694  0.79989892  0.28380610    -0.00680
Br1840     Br  0.56261683  0.74760407  0.33570820    -0.00660
C1841       C  0.96701144  0.64918182  0.33557747    -0.01790
C1842       C  0.49377297  0.65805896  0.34825151     0.07900
C1843       C  0.52013623  0.64341651  0.34103361    -0.01900
C1844       C  0.52012967  0.62151354  0.31939390    -0.01900
C1845       C  0.99375715  0.61428990  0.30503252     0.08030
C1846       C  0.96700262  0.62727412  0.31394794    -0.02100
Br1847     Br  0.93075767  0.61625155  0.29509458    -0.00650
Br1848     Br  0.93077382  0.66841283  0.34663824    -0.00720
Br1849     Br  0.55664427  0.60325309  0.30748126    -0.00680
Br1850     Br  0.55663876  0.65520916  0.35897195    -0.00660
C1851       C  0.65728275  0.64200449  0.02458747    -0.01790
C1852       C  0.65096553  0.65604568  0.99769017     0.07900
C1853       C  0.66376988  0.64585871  0.47126108    -0.01900
C1854       C  0.68470098  0.62331902  0.47200172    -0.01900
C1855       C  0.69334673  0.61142500  0.99920639     0.08030
C1856       C  0.67862834  0.61975086  0.02536270    -0.02100
Br1857     Br  0.68916963  0.60193097  0.06230676    -0.00650
Br1858     Br  0.63825305  0.65481999  0.06049708    -0.00720
Br1859     Br  0.70274525  0.60967605  0.43592254    -0.00680
Br1860     Br  0.65395114  0.66416562  0.43429111    -0.00660
C1861       C  0.84412470  0.63718550  0.02308651    -0.01790
C1862       C  0.84642316  0.65887456  0.00079310     0.07900
C1863       C  0.82855381  0.65687723  0.47580894    -0.01900
C1864       C  0.80674439  0.63483722  0.47429345    -0.01900
C1865       C  0.80233454  0.61489395  0.99796693     0.08030
C1866       C  0.82195148  0.61526925  0.02178539    -0.02100
Br1867     Br  0.81701101  0.58743898  0.05382306    -0.00650
Br1868     Br  0.86987592  0.63884313  0.05642211    -0.00720
Br1869     Br  0.78235893  0.63249692  0.43995632    -0.00680
Br1870     Br  0.83326382  0.68517402  0.44406268    -0.00660
C1871       C  0.81013351  0.79437387  0.03799793    -0.01790
C1872       C  0.80549973  0.81013356  0.01167934     0.08140
C1873       C  0.82426761  0.80587347  0.48705144    -0.01900
C1874       C  0.84590163  0.78397552  0.48787877    -0.01900
C1875       C  0.84875441  0.76642261  0.01338919     0.08030
C1876       C  0.83180389  0.77255021  0.03887096    -0.02100
Br1877     Br  0.83732585  0.74990935  0.07442778    -0.00650
Br1878     Br  0.78552202  0.80160236  0.07225263    -0.00720
Br1879     Br  0.86945923  0.77605752  0.45304093    -0.00680
Br1880     Br  0.81834568  0.82799541  0.45123925    -0.00660
C1881       C  0.69092401  0.79554733  0.47184764    -0.01790
C1882       C  0.69763787  0.80854536  0.99897049     0.07900
C1883       C  0.68090533  0.80121903  0.02446212    -0.01900
C1884       C  0.65895572  0.77921428  0.02329814    -0.01900
C1885       C  0.65381348  0.76461282  0.99661976     0.08030
C1886       C  0.66895164  0.77359925  0.47065975    -0.02100
Br1887     Br  0.66047119  0.75474446  0.43383039    -0.00650
Br1888     Br  0.71310249  0.80668743  0.43676701    -0.00720
Br1889     Br  0.63757496  0.76742342  0.05865014    -0.00680
Br1890     Br  0.68971158  0.81980760  0.06134602    -0.00660
C1891       C  0.75143175  0.87275308  0.00333414     0.03190
C1892       C  0.77803959  0.85760263  0.00721661    -0.12960
C1893       C  0.77804013  0.82683697  0.50829754     0.00690
C1894       C  0.75154814  0.81120993  0.50538129    -0.11480
C1895       C  0.72501820  0.82598277  0.50161120     0.03180
C1896       C  0.72488175  0.85670006  0.00063426    -0.10900
H1897       H  0.79869022  0.86955242  0.00938395     0.08780
H1898       H  0.75158303  0.78738483  0.50602851     0.06310
H1899       H  0.70415616  0.86791546  0.99765842     0.06150
C1900       C  0.91138154  0.71227378  0.50512174     0.03190
C1901       C  0.89625723  0.73873446  0.50959645    -0.12960
C1902       C  0.86540278  0.73878142  0.51171074     0.00690
C1903       C  0.84963965  0.71231273  0.50990802    -0.11480
C1904       C  0.86429122  0.68583423  0.50514822     0.03180
C1905       C  0.89518996  0.68579609  0.50285036    -0.10900
H1906       H  0.90829051  0.75936339  0.51095945     0.08780
H1907       H  0.82569914  0.71245984  0.51112250     0.06310
H1908       H  0.90642257  0.66528778  0.49881117     0.06150
C1909       C  0.74901309  0.54945072  0.49874577     0.03190
C1910       C  0.72182481  0.56425615  0.49968376    -0.12960
C1911       C  0.72123639  0.59498318  0.50058477     0.00690
C1912       C  0.74773625  0.61095232  0.50107321    -0.11480
C1913       C  0.77495444  0.59672835  0.49935972     0.03180
C1914       C  0.77555199  0.56594426  0.49815227    -0.10900
H1915       H  0.70115875  0.55206500  0.49944386     0.08780
H1916       H  0.74715907  0.63474954  0.50183587     0.06310
H1917       H  0.79663833  0.55498331  0.49677428     0.06150
C1918       C  0.58877529  0.71142226  0.49709990     0.03190
C1919       C  0.60517584  0.73785178  0.49662874    -0.12960
C1920       C  0.63606799  0.73728747  0.49670140     0.00690
C1921       C  0.65064879  0.71037043  0.49723069    -0.11480
C1922       C  0.63464878  0.68394429  0.49758184     0.03180
C1923       C  0.60375212  0.68443938  0.49751122    -0.10900
H1924       H  0.59409283  0.75882348  0.49636521     0.08780
H1925       H  0.67458669  0.70998928  0.49734148     0.06310
H1926       H  0.59155294  0.66383406  0.49783036     0.06150
C1927       C  0.49798783  0.71223823  0.91115072     0.03190
C1928       C  0.49560093  0.68559640  0.89581110    -0.12960
C1929       C  0.49506426  0.68562802  0.86500288     0.00690
C1930       C  0.49684086  0.71220964  0.84942403    -0.11480
C1931       C  0.49951708  0.73886642  0.86426192     0.03180
C1932       C  0.50000312  0.73890174  0.89513269    -0.10900
H1933       H  0.49431740  0.66484694  0.90765258     0.08780
H1934       H  0.49660312  0.71211438  0.82554334     0.06310
H1935       H  0.50218000  0.75962007  0.90649279     0.06150
C1936       C  0.00015297  0.87489163  0.74883722     0.03190
C1937       C  0.99881004  0.85961595  0.72200606    -0.12960
C1938       C  0.99867954  0.82882879  0.72186368     0.00690
C1939       C  0.99987481  0.81324325  0.74844454    -0.11480
C1940       C  0.00160011  0.82799541  0.77525164     0.03180
C1941       C  0.00167958  0.85881517  0.77545609    -0.10900
H1942       H  0.99787880  0.87149608  0.70127783     0.08780
H1943       H  0.99979328  0.78941710  0.74824019     0.06310
H1944       H  0.00302327  0.87011043  0.79629815     0.06150
C1945       C  0.50119929  0.71333564  0.58825545     0.03190
C1946       C  0.49962455  0.74022909  0.60336890    -0.12960
C1947       C  0.49907201  0.74057596  0.63421253     0.00690
C1948       C  0.50004858  0.71413588  0.64997660    -0.11480
C1949       C  0.50199936  0.68733433  0.63528414     0.03180
C1950       C  0.50254582  0.68691207  0.60445741    -0.10900
H1951       H  0.49879293  0.76084089  0.59132874     0.08780
H1952       H  0.49966057  0.71443784  0.67386351     0.06310
H1953       H  0.50403584  0.66604225  0.59326286     0.06150
C1954       C  0.99895981  0.55173554  0.75042084     0.03190
C1955       C  0.99618234  0.56686361  0.77725242    -0.12960
C1956       C  0.99513220  0.59759234  0.77738168     0.00690
C1957       C  0.99669830  0.61323248  0.75080624    -0.11480
C1958       C  0.99976043  0.59853851  0.72405645     0.03180
C1959       C  0.00083580  0.56782239  0.72381608    -0.10900
H1960       H  0.99502184  0.55493548  0.79799515     0.08780
H1961       H  0.99610822  0.63704628  0.75097852     0.06310
H1962       H  0.00327551  0.55663699  0.70296148     0.06150
C1963       C  0.74896664  0.95755899  0.91163744     0.03190
C1964       C  0.72179640  0.95739491  0.89706621    -0.12960
C1965       C  0.72109662  0.95591442  0.86632245     0.00690
C1966       C  0.74752773  0.95503323  0.85001309    -0.11480
C1967       C  0.77476680  0.95481828  0.86406070     0.03180
C1968       C  0.77544726  0.95591605  0.89492887    -0.10900
H1969       H  0.70117264  0.95834176  0.90947863     0.08780
H1970       H  0.74686776  0.95429132  0.82616300     0.06310
H1971       H  0.79654882  0.95562338  0.90576850     0.06150
C1972       C  0.91124332  0.96430940  0.74741892     0.03190
C1973       C  0.89458513  0.95985998  0.77361481    -0.12960
C1974       C  0.86371842  0.96129708  0.77343668     0.00690
C1975       C  0.84939856  0.96716962  0.74704150    -0.11480
C1976       C  0.86556657  0.97163443  0.72080397     0.03180
C1977       C  0.89649796  0.97017572  0.72099102    -0.10900
H1978       H  0.90547672  0.95532006  0.79417694     0.08780
H1979       H  0.82548310  0.96812438  0.74688804     0.06310
H1980       H  0.90891119  0.97364556  0.70061270     0.06150
C1981       C  0.75242398  0.96507085  0.58851342     0.03190
C1982       C  0.77854107  0.97461775  0.60189769    -0.12960
C1983       C  0.77892282  0.97943044  0.63220563     0.00690
C1984       C  0.75243448  0.97766805  0.64833925    -0.11480
C1985       C  0.72709919  0.96427249  0.63664463     0.03180
C1986       C  0.72747356  0.95785508  0.60631331    -0.10900
H1987       H  0.79878004  0.97749957  0.58905276     0.08780
H1988       H  0.75263070  0.98391448  0.67129142     0.06310
H1989       H  0.70902206  0.94666776  0.59649495     0.06150
C1990       C  0.58868012  0.96033919  0.75326430     0.03190
C1991       C  0.60716936  0.96051072  0.72786110    -0.12960
C1992       C  0.63627879  0.94942969  0.72908983     0.00690
C1993       C  0.64542508  0.93846540  0.75649748    -0.11480
C1994       C  0.63032710  0.94590368  0.78238819     0.03180
C1995       C  0.60134265  0.95553286  0.78083821    -0.10900
H1996       H  0.59869006  0.96970732  0.70784433     0.08780
H1997       H  0.66615942  0.92715357  0.75840673     0.06310
H1998       H  0.58892041  0.95936494  0.80103766     0.06150
O1999       O  0.54059943  0.96380910  0.77477590    -0.71720
O2000       O  0.95708699  0.96222711  0.77223329    -0.71930
O2001       O  0.99934949  0.92128838  0.77309561    -0.71790
O2002       O  0.99835054  0.50464621  0.77388155    -0.71800
O2003       O  0.00175942  0.50555997  0.72613665    -0.71760
O2004       O  0.00071809  0.92213938  0.72529672    -0.71780
O2005       O  0.95929638  0.96422554  0.72446854    -0.71720
O2006       O  0.54334091  0.96373544  0.72700592    -0.71910
V2007       V  0.99891493  0.96302194  0.77254104     1.35240
V2008       V  0.00124164  0.96389232  0.72662620     1.35170
C2009       C  0.55628451  0.96348355  0.75147058     0.77520
C2010       C  0.94386877  0.96343187  0.74799294     0.77580
C2011       C  0.00007422  0.90743088  0.74907511     0.77450
C2012       C  0.99981077  0.51933273  0.75014297     0.77410
O2013       O  0.77520947  0.96339181  0.54090023    -0.71720
O2014       O  0.77378629  0.95972959  0.95754643    -0.71930
O2015       O  0.77380238  0.50330459  0.49730406    -0.71790
O2016       O  0.77504848  0.91991262  0.50140754    -0.71800
O2017       O  0.72710990  0.91881452  0.50176657    -0.71760
O2018       O  0.72592645  0.50205726  0.50039589    -0.71780
O2019       O  0.72586413  0.95988176  0.95926741    -0.71720
O2020       O  0.72732216  0.96070649  0.54290240    -0.71910
V2021       V  0.77353809  0.96155965  0.49930000     1.35240
V2022       V  0.72748562  0.96040797  0.50102351     1.35170
C2023       C  0.75158306  0.96257155  0.55614906     0.77520
C2024       C  0.74957676  0.95916821  0.94413607     0.77580
C2025       C  0.74962600  0.51694940  0.49866327     0.77450
C2026       C  0.75123176  0.90514360  0.50211715     0.77410
O2027       O  0.95788671  0.68852443  0.50191284    -0.71720
O2028       O  0.54143752  0.68821030  0.49840539    -0.71930
O2029       O  0.00063649  0.68884390  0.54189904    -0.71790
O2030       O  0.99865068  0.68835740  0.95825799    -0.71800
O2031       O  0.99938055  0.73604945  0.95769278    -0.71760
O2032       O  0.50134732  0.73653877  0.54105773    -0.71780
O2033       O  0.54233078  0.73590459  0.49768761    -0.71720
O2034       O  0.95848134  0.73622609  0.50136228    -0.71910
V2035       V  0.99968220  0.68941262  0.50007233     1.35240
V2036       V  0.00037866  0.73525275  0.49941553     1.35170
C2037       C  0.94390122  0.71236498  0.50260152     0.77520
C2038       C  0.55618955  0.71191051  0.49765810     0.77580
C2039       C  0.00115180  0.71285386  0.55574695     0.77450
C2040       C  0.99868944  0.71219114  0.94369255     0.77410
C2041       C  0.67176866  0.95776585  0.65115138    -0.01790
C2042       C  0.70226253  0.95559175  0.65757713     0.07900
C2043       C  0.70946370  0.94756283  0.68658817    -0.01900
C2044       C  0.68913285  0.95225688  0.70931270    -0.01900
C2045       C  0.65836797  0.95100300  0.70359998     0.08030
C2046       C  0.65024488  0.95096352  0.67338611    -0.02100
Br2047     Br  0.61159946  0.93859301  0.66083076    -0.00650
Br2048     Br  0.65824989  0.97226342  0.61376679    -0.00720
Br2049     Br  0.70594085  0.96796745  0.74486843    -0.00680
Br2050     Br  0.74627329  0.92874238  0.69617218    -0.00660
C2051       C  0.82412197  0.95525459  0.65140262    -0.01790
C2052       C  0.80689425  0.98087884  0.64870728     0.07900
C2053       C  0.81282964  0.00520155  0.66676985    -0.01900
C2054       C  0.83384315  0.00299706  0.68912524    -0.01900
C2055       C  0.84927839  0.97659215  0.69327268     0.08030
C2056       C  0.84536510  0.95323708  0.67354971    -0.02100
Br2057     Br  0.86693028  0.91724181  0.67887914    -0.00650
Br2058     Br  0.81639851  0.92130527  0.62734058    -0.00720
Br2059     Br  0.84039394  0.03552997  0.71525130    -0.00680
Br2060     Br  0.79088596  0.04094144  0.66183928    -0.00660
C2061       C  0.80684173  0.92959524  0.82694295    -0.01790
C2062       C  0.80210807  0.95378610  0.84564035     0.07900
C2063       C  0.82107232  0.97855650  0.84341625    -0.01900
C2064       C  0.84300875  0.98004859  0.82104577    -0.01900
C2065       C  0.84575772  0.95700852  0.80068071     0.08030
C2066       C  0.82843322  0.93132572  0.80434919    -0.02100
Br2067     Br  0.83357095  0.89899748  0.77756011    -0.00650
Br2068     Br  0.78306187  0.89435569  0.83174627    -0.00720
Br2069     Br  0.86775117  0.01465621  0.81678728    -0.00680
Br2070     Br  0.81538483  0.01165127  0.86911201    -0.00660
C2071       C  0.68441346  0.97989381  0.83410603    -0.01790
C2072       C  0.69296272  0.95509119  0.85044180     0.07900
C2073       C  0.67710845  0.92840603  0.84804692    -0.01900
C2074       C  0.65450732  0.92582322  0.82731132    -0.01900
C2075       C  0.64763360  0.94996144  0.80930140     0.08030
C2076       C  0.66157704  0.97742472  0.81375313    -0.02100
Br2077     Br  0.65104911  0.01119532  0.79024073    -0.00650
Br2078     Br  0.70533400  0.01676408  0.83837192    -0.00720
Br2079     Br  0.63387561  0.88904378  0.82231938    -0.00680
Br2080     Br  0.68798197  0.89481882  0.87143981    -0.00660
C2081       C  0.97867642  0.64160441  0.65639631    -0.01790
C2082       C  0.00371275  0.66005001  0.65290458     0.07900
C2083       C  0.52909861  0.65478869  0.66954446    -0.01900
C2084       C  0.52853983  0.63286087  0.69145817    -0.01900
C2085       C  0.00262413  0.61611608  0.69671283     0.08030
C2086       C  0.97813958  0.61958941  0.67835117    -0.02100
Br2087     Br  0.94304245  0.59589291  0.68494731    -0.00650
Br2088     Br  0.94426553  0.64813446  0.63287150    -0.00720
Br2089     Br  0.56276791  0.62663584  0.71536930    -0.00680
Br2090     Br  0.56420456  0.67856809  0.66311213    -0.00660
C2091       C  0.52492893  0.78202006  0.65875714    -0.01790
C2092       C  0.99824832  0.76830489  0.65082129     0.07900
C2093       C  0.97126512  0.77810181  0.66288229    -0.01900
C2094       C  0.97116731  0.79998157  0.68458418    -0.01900
C2095       C  0.99805128  0.81204819  0.69419292     0.08030
C2096       C  0.52483128  0.80389050  0.68045710    -0.02100
Br2097     Br  0.56153235  0.82103951  0.69315714    -0.00650
Br2098     Br  0.56176005  0.76909086  0.64154460    -0.00720
Br2099     Br  0.93447555  0.81209235  0.70268867    -0.00680
Br2100     Br  0.93470493  0.76006351  0.65097907    -0.00660
C2101       C  0.97782478  0.78475413  0.84331123    -0.01790
C2102       C  0.50235592  0.76629629  0.84666350     0.07900
C2103       C  0.52827832  0.77156078  0.82971670    -0.01900
C2104       C  0.52881303  0.79356100  0.80780155    -0.01900
C2105       C  0.00340228  0.81035666  0.80269567     0.08030
C2106       C  0.97833146  0.80677621  0.82130130    -0.02100
Br2107     Br  0.94377951  0.83025464  0.81493384    -0.00650
Br2108     Br  0.94267104  0.77821161  0.86717512    -0.00720
Br2109     Br  0.56395566  0.79989901  0.78380689    -0.00680
Br2110     Br  0.56261477  0.74760425  0.83570909    -0.00660
C2111       C  0.96701007  0.64918154  0.83557718    -0.01790
C2112       C  0.49377124  0.65805899  0.84825152     0.07900
C2113       C  0.52013477  0.64341677  0.84103414    -0.01900
C2114       C  0.52012881  0.62151367  0.81939453    -0.01900
C2115       C  0.99375662  0.61428974  0.80503277     0.08030
C2116       C  0.96700181  0.62727374  0.81394774    -0.02100
Br2117     Br  0.93075728  0.61625074  0.79509385    -0.00650
Br2118     Br  0.93077209  0.66841225  0.84663730    -0.00720
Br2119     Br  0.55664380  0.60325358  0.80748258    -0.00680
Br2120     Br  0.55663687  0.65520990  0.85897300    -0.00660
C2121       C  0.65728562  0.64200436  0.52458809    -0.01790
C2122       C  0.65096842  0.65604520  0.49769061     0.07900
C2123       C  0.66376694  0.64585948  0.97126051    -0.01900
C2124       C  0.68469807  0.62331978  0.97200085    -0.01900
C2125       C  0.69334960  0.61142459  0.49920742     0.08030
C2126       C  0.67863122  0.61975077  0.52536362    -0.02100
Br2127     Br  0.68917250  0.60193134  0.56230791    -0.00650
Br2128     Br  0.63825591  0.65482031  0.56049752    -0.00720
Br2129     Br  0.70274234  0.60967730  0.93592147    -0.00680
Br2130     Br  0.65394808  0.66416677  0.93429076    -0.00660
C2131       C  0.84412775  0.63718468  0.52308693    -0.01790
C2132       C  0.84642610  0.65887360  0.50079336     0.07900
C2133       C  0.82855093  0.65687845  0.97580862    -0.01900
C2134       C  0.80674153  0.63483845  0.97429286    -0.01900
C2135       C  0.80233743  0.61489294  0.49796771     0.08030
C2136       C  0.82195451  0.61526840  0.52178606    -0.02100
Br2137     Br  0.81701423  0.58743830  0.55382389    -0.00650
Br2138     Br  0.86987915  0.63884252  0.55642237    -0.00720
Br2139     Br  0.78235615  0.63249847  0.93995565    -0.00680
Br2140     Br  0.83326097  0.68517557  0.94406265    -0.00660
C2141       C  0.81013651  0.79437343  0.53799731    -0.01790
C2142       C  0.80550283  0.81013314  0.51167872     0.08140
C2143       C  0.82426451  0.80587403  0.98705204    -0.01900
C2144       C  0.84589870  0.78397624  0.98787935    -0.01900
C2145       C  0.84875720  0.76642187  0.51338862     0.08030
C2146       C  0.83180674  0.77254961  0.53887038    -0.02100
Br2147     Br  0.83732859  0.74990880  0.57442724    -0.00650
Br2148     Br  0.78552506  0.80160210  0.57225200    -0.00720
Br2149     Br  0.86945630  0.77605839  0.95304148    -0.00680
Br2150     Br  0.81834236  0.82799587  0.95123982    -0.00660
C2151       C  0.69092088  0.79554814  0.97184825    -0.01790
C2152       C  0.69764102  0.80854461  0.49896983     0.07900
C2153       C  0.68090851  0.80121839  0.52446151    -0.01900
C2154       C  0.65895884  0.77921372  0.52329761    -0.01900
C2155       C  0.65381651  0.76461223  0.49661926     0.08030
C2156       C  0.66894858  0.77359999  0.97066029    -0.02100
Br2157     Br  0.66046816  0.75474534  0.93383084    -0.00650
Br2158     Br  0.71309931  0.80668844  0.93676765    -0.00720
Br2159     Br  0.63757814  0.76742295  0.55864967    -0.00680
Br2160     Br  0.68971491  0.81980696  0.56134538    -0.00660
loop_ 
_geom_bond_atom_site_label_1 
_geom_bond_atom_site_label_2 
_geom_bond_distance 
_geom_bond_site_symmetry_2 
_ccdc_geom_bond_type 
C1            C2   1.408       .  A
C1            C6   1.408       .  A
C1          C406   1.475       .  S
C2          C273   1.401       .  A
C2            H7   1.084       .  S
C3            C4   1.398       .  A
C3          C272   1.401       .  A
C3          C252   1.475       .  S
C4            C5   1.396       .  A
C4            H8   1.085       .  S
C5          C276   1.399       .  A
C5          C262   1.473   1_554  S
C6          C275   1.399       .  A
C6            H9   1.083       .  S
C10          C11   1.406       .  A
C10          C15   1.410       .  A
C10         C147   1.475       .  S
C11          C12   1.399       .  A
C11          H16   1.084       .  S
C12          C13   1.398       .  A
C12         C255   1.476       .  S
C13          C14   1.399       .  A
C13          H17   1.085       .  S
C14          C15   1.402       .  A
C14         C242   1.480       .  S
C15          H18   1.083   1_554  S
C19          C20   1.410       .  A
C19          C24   1.410       .  A
C19         C135   1.480       .  S
C20          C21   1.400   1_556  A
C20          H25   1.084       .  S
C21          C22   1.397       .  A
C21         C235   1.477   1_554  S
C22          C23   1.400   1_554  A
C22          H26   1.085       .  S
C23          C24   1.403       .  A
C23         C245   1.484       .  S
C24          H27   1.083       .  S
C28          C29   1.407       .  A
C28          C33   1.410       .  A
C28         C148   1.476       .  S
C29          C30   1.400       .  A
C29          H34   1.083       .  S
C30          C31   1.398       .  A
C30         C265   1.474       .  S
C31          C32   1.398       .  A
C31          H35   1.085       .  S
C32          C33   1.400       .  A
C32         C232   1.476       .  S
C33          H36   1.084       .  S
C37          C38   1.408       .  A
C37          C42   1.411   1_655  A
C37        C1230   1.479       .  S
C38          C39   1.400       .  A
C38          H43   1.084       .  S
C39          C40   1.397       .  A
C39         C222   1.474       .  S
C40          C41   1.398       .  A
C40          H44   1.085       .  S
C41          C42   1.403   1_655  A
C41         C212   1.480   1_655  S
C42          H45   1.083       .  S
C46          C47   1.410       .  A
C46          C51   1.411       .  A
C46         C121   1.481       .  S
C47          C48   1.402       .  A
C47          H52   1.083       .  S
C48          C49   1.397       .  A
C48         C205   1.477       .  S
C49          C50   1.398       .  A
C49          H53   1.085       .  S
C50          C51   1.403       .  A
C50         C215   1.481       .  S
C51          H54   1.083       .  S
C55          C56   1.410   1_455  A
C55          C60   1.407       .  A
C55        C1229   1.477       .  S
C56          C57   1.401       .  A
C56          H61   1.083       .  S
C57          C58   1.397   1_655  A
C57        C1282   1.476       .  S
C58          C59   1.398       .  A
C58          H62   1.085   1_455  S
C59          C60   1.400       .  A
C59        C1272   1.475       .  S
C60          H63   1.083       .  S
C64          C65   1.409       .  A
C64          C69   1.408       .  A
C64         C122   1.476       .  S
C65          C66   1.400       .  A
C65          H70   1.084       .  S
C66          C67   1.396       .  A
C66         C225   1.474       .  S
C67          C68   1.397       .  A
C67          H71   1.085       .  S
C68          C69   1.400       .  A
C68         C195   1.475       .  S
C69          H72   1.084       .  S
C73          C74   1.408       .  A
C73          C78   1.411       .  A
C73         C134   1.479       .  S
C74          C75   1.399       .  A
C74          H79   1.084       .  S
C75          C76   1.397       .  A
C75         C182   1.476       .  S
C76          C77   1.399       .  A
C76          H80   1.085       .  S
C77          C78   1.404       .  A
C77         C172   1.483       .  S
C78          H81   1.083       .  S
C82          C83   1.409       .  A
C82          C87   1.409       .  A
C82         C120   1.480       .  S
C83          C84   1.401       .  A
C83          H88   1.083       .  S
C84          C85   1.399       .  A
C84         C175   1.479       .  S
C85          C86   1.399       .  A
C85          H89   1.085       .  S
C86          C87   1.404       .  A
C86         C165   1.480       .  S
C87          H90   1.084       .  S
C91          C92   1.406       .  A
C91          C96   1.412       .  A
C91         C133   1.476       .  S
C92          C93   1.396       .  A
C92          H97   1.084       .  S
C93          C94   1.396       .  A
C93         C162   1.485       .  S
C94          C95   1.409       .  A
C94          H98   1.083       .  S
C95          C96   1.410       .  A
C95         C152   1.507       .  S
C96          H99   1.079       .  S
C100        C101   1.413       .  A
C100        C105   1.403       .  A
C100        C119   1.480       .  S
C101        C102   1.419       .  A
C101        H106   1.077       .  S
C102        C103   1.408       .  A
C102        C155   1.517       .  S
C103        C104   1.395       .  A
C103        H107   1.080       .  S
C104        C105   1.391       .  A
C104        C185   1.476       .  S
C105        H108   1.084       .  S
O109        C119   1.264       .  A
O109       V1197   1.893   1_455  S
O110        C120   1.264       .  A
O110        V117   1.895       .  S
O111        C121   1.265       .  A
O111        V117   1.900       .  S
O112        C122   1.264       .  A
O112        V657   1.897   1_545  S
O113        C122   1.264       .  A
O113        V658   1.897   1_545  S
O114        C121   1.266       .  A
O114        V118   1.902       .  S
O115        C120   1.266       .  A
O115        V118   1.905       .  S
O116        C119   1.266       .  A
O116       V1198   1.907       .  S
V117       O1189   1.893       .  S
V117        O652   1.897       .  S
V117        V118   2.086       .  T
V118        O653   1.897       .  S
V118       O1196   1.907       .  S
O123        C133   1.264       .  A
O123        V131   1.895   1_554  S
O124        C134   1.264       .  A
O124        V401   1.899       .  S
O125        C135   1.266       .  A
O125        V671   1.902   1_545  S
O126        C136   1.265       .  A
O126        V131   1.900   1_554  S
O127        C136   1.263       .  A
O127        V132   1.893       .  S
O128        C135   1.265   1_554  A
O128        V672   1.898   1_545  S
O129        C134   1.265       .  A
O129        V402   1.899       .  S
O130        C133   1.265       .  A
O130        V132   1.902       .  S
V131        O394   1.899       .  S
V131        O665   1.902       .  S
V131        V132   2.086   1_556  T
V132        O668   1.898       .  S
V132        O399   1.899   1_554  S
C136        C271   1.475       .  S
O137        C147   1.263       .  A
O137        V145   1.894       .  S
O138        C148   1.263       .  A
O138       V1225   1.893   1_456  S
O139        C149   1.266       .  A
O139        V145   1.901       .  S
O140        C150   1.266       .  A
O140        V415   1.901       .  S
O141        C150   1.264       .  A
O141        V416   1.896       .  S
O142       C1229   1.263       .  A
O142       V1226   1.894   1_554  S
O143        C148   1.266       .  A
O143       V1226   1.900       .  S
O144        C147   1.266       .  A
O144        V146   1.899   1_554  S
V145       O1218   1.893   1_554  S
V145        O410   1.901   1_554  S
V145        V146   2.087   1_554  T
V146        O411   1.896       .  S
V146       O1222   1.894   1_556  S
V146       O1223   1.900       .  S
C149       C1135   1.477       .  S
C149       O1222   1.263       .  A
C150       C1117   1.479       .  S
C151        C152   1.421       .  A
C151        C156   1.421       .  A
C151       Br158   1.929       .  S
C152        C153   1.409       .  A
C153        C154   1.390       .  A
C153       Br160   1.938       .  S
C154        C155   1.423       .  A
C154       Br159   1.937       .  S
C155        C156   1.427       .  A
C156       Br157   1.931       .  S
C161        C162   1.416       .  A
C161        C166   1.408       .  A
C161       Br168   1.933       .  S
C162        C163   1.410       .  A
C163        C164   1.408       .  A
C163       Br170   1.929       .  S
C164        C165   1.410       .  A
C164       Br169   1.929       .  S
C165        C166   1.408       .  A
C166       Br167   1.932       .  S
C171        C172   1.412       .  A
C171        C176   1.406       .  A
C171       Br178   1.931       .  S
C172        C173   1.412       .  A
C173        C174   1.409       .  A
C173       Br180   1.930       .  S
C174        C175   1.409       .  A
C174       Br179   1.930       .  S
C175        C176   1.408       .  A
C176       Br177   1.931       .  S
C181        C182   1.407       .  A
C181        C186   1.404       .  A
C181       Br188   1.932       .  S
C182        C183   1.411       .  A
C183        C184   1.408       .  A
C183       Br190   1.928       .  S
C184        C185   1.405       .  A
C184       Br189   1.926       .  S
C185        C186   1.412       .  A
C186       Br187   1.933       .  S
C191        C192   1.410       .  A
C191        C196   1.407       .  A
C191       Br198   1.930       .  S
C192       C1273   1.409       .  A
C192       C1139   1.475       .  S
C193        C194   1.403       .  A
C193       C1272   1.409       .  A
C193       Br200   1.931       .  S
C194       C1275   1.409       .  A
C194       Br199   1.931       .  S
C195        C196   1.409       .  A
C195       C1274   1.409       .  A
C196       Br197   1.929       .  S
C201        C206   1.407       .  A
C201       C1282   1.409   1_455  A
C201       Br208   1.929       .  S
C202        C203   1.409       .  A
C202       C1281   1.409       .  A
C202       C1137   1.476       .  S
C203        C204   1.407       .  A
C203       Br210   1.929       .  S
C204        C205   1.409       .  A
C204       Br209   1.929       .  S
C205       C1286   1.409       .  A
C206       C1285   1.409   1_455  A
C206       Br207   1.929       .  S
C211        C216   1.409       .  A
C211       C1292   1.410       .  A
C211       Br218   1.929       .  S
C212        C213   1.409       .  A
C212       C1291   1.410   1_455  A
C213        C214   1.406       .  A
C213       Br220   1.931       .  S
C214       C1295   1.410       .  A
C214       Br219   1.930       .  S
C215        C216   1.410       .  A
C215       C1294   1.410       .  A
C216       Br217   1.929       .  S
C221        C226   1.406       .  A
C221       C1302   1.408       .  A
C221       Br228   1.929       .  S
C222        C223   1.409   1_655  A
C222       C1301   1.408       .  A
C223        C224   1.406       .  A
C223       Br230   1.930       .  S
C224       C1305   1.409   1_455  A
C224       Br229   1.930       .  S
C225        C226   1.408       .  A
C225       C1304   1.409       .  A
C226       Br227   1.929       .  S
C231        C232   1.409   1_554  A
C231        C236   1.408       .  A
C231       Br238   1.928       .  S
C232        C503   1.408       .  A
C233        C234   1.405       .  A
C233        C502   1.408       .  A
C233       Br240   1.929       .  S
C234        C505   1.409       .  A
C234       Br239   1.928       .  S
C235        C236   1.408   1_556  A
C235        C504   1.409       .  A
C236       Br237   1.928       .  S
C241        C242   1.410       .  A
C241        C246   1.411       .  A
C241       Br248   1.929       .  S
C242        C513   1.409   1_554  A
C243        C244   1.404       .  A
C243        C512   1.409       .  A
C243       Br250   1.933       .  S
C244        C515   1.411       .  A
C244       Br249   1.930       .  S
C245        C246   1.412   1_556  A
C245        C514   1.411       .  A
C246       Br247   1.930       .  S
C251        C252   1.409       .  A
C251        C256   1.405       .  A
C251       Br258   1.930       .  S
C252        C523   1.408   1_554  A
C253        C254   1.406       .  A
C253        C522   1.408       .  A
C253       Br260   1.930       .  S
C254        C525   1.411       .  A
C254       Br259   1.931       .  S
C255        C256   1.409       .  A
C255        C524   1.411   1_554  A
C256       Br257   1.930       .  S
C261        C266   1.405       .  A
C261        C532   1.408       .  A
C261       Br268   1.929       .  S
C262        C263   1.408   1_556  A
C262        C531   1.408       .  A
C263        C264   1.406       .  A
C263       Br270   1.929       .  S
C264        C265   1.409   1_554  A
C264       Br269   1.929       .  S
C265        C536   1.409       .  A
C266        C535   1.409       .  A
C266       Br267   1.929       .  S
C271        C272   1.408       .  A
C271        C276   1.408       .  A
C272        H277   1.084       .  S
C273        C274   1.398       .  A
C273        C522   1.475       .  S
C274        C275   1.396       .  A
C274        H278   1.085       .  S
C275        C532   1.473       .  S
C276        H279   1.083   1_554  S
C280        C281   1.406       .  A
C280        C285   1.410       .  A
C280        C417   1.475       .  S
C281        C282   1.399       .  A
C281        H286   1.084       .  S
C282        C283   1.398       .  A
C282        C525   1.476       .  S
C283        C284   1.399       .  A
C283        H287   1.085       .  S
C284        C285   1.402       .  A
C284        C512   1.480       .  S
C285        H288   1.083       .  S
C289        C290   1.410       .  A
C289        C294   1.410       .  A
C289        C405   1.480       .  S
C290        C291   1.400       .  A
C290        H295   1.084       .  S
C291        C292   1.397       .  A
C291        C505   1.477       .  S
C292        C293   1.400       .  A
C292        H296   1.085       .  S
C293        C294   1.403       .  A
C293        C515   1.484       .  S
C294        H297   1.083       .  S
C298        C299   1.407       .  A
C298        C303   1.410       .  A
C298        C418   1.476       .  S
C299        C300   1.400       .  A
C299        H304   1.083       .  S
C300        C301   1.398       .  A
C300        C535   1.474       .  S
C301        C302   1.398       .  A
C301        H305   1.085       .  S
C302        C303   1.400       .  A
C302        C502   1.476       .  S
C303        H306   1.084       .  S
C307        C308   1.408       .  A
C307        C312   1.411   1_655  A
C307       C1500   1.479       .  S
C308        C309   1.400       .  A
C308        H313   1.084       .  S
C309        C310   1.397       .  A
C309        C492   1.474       .  S
C310        C311   1.398       .  A
C310        H314   1.085       .  S
C311        C312   1.403   1_655  A
C311        C482   1.480   1_655  S
C312        H315   1.083       .  S
C316        C317   1.410       .  A
C316        C321   1.411       .  A
C316        C391   1.481       .  S
C317        C318   1.402       .  A
C317        H322   1.083       .  S
C318        C319   1.397       .  A
C318        C475   1.477       .  S
C319        C320   1.398       .  A
C319        H323   1.085       .  S
C320        C321   1.403       .  A
C320        C485   1.481       .  S
C321        H324   1.083       .  S
C325        C326   1.410   1_455  A
C325        C330   1.407       .  A
C325       C1499   1.477       .  S
C326        C327   1.401       .  A
C326        H331   1.083       .  S
C327        C328   1.397   1_655  A
C327       C1552   1.476       .  S
C328        C329   1.398       .  A
C328        H332   1.085   1_455  S
C329        C330   1.400       .  A
C329       C1542   1.475       .  S
C330        H333   1.083       .  S
C334        C335   1.409       .  A
C334        C339   1.408       .  A
C334        C392   1.476       .  S
C335        C336   1.400       .  A
C335        H340   1.084       .  S
C336        C337   1.396       .  A
C336        C495   1.474       .  S
C337        C338   1.397       .  A
C337        H341   1.085       .  S
C338        C339   1.400       .  A
C338        C465   1.475       .  S
C339        H342   1.084       .  S
C343        C344   1.408       .  A
C343        C348   1.411       .  A
C343        C404   1.479       .  S
C344        C345   1.399       .  A
C344        H349   1.084       .  S
C345        C346   1.397       .  A
C345        C452   1.476       .  S
C346        C347   1.399       .  A
C346        H350   1.085       .  S
C347        C348   1.404       .  A
C347        C442   1.483       .  S
C348        H351   1.083       .  S
C352        C353   1.409       .  A
C352        C357   1.409       .  A
C352        C390   1.480       .  S
C353        C354   1.401       .  A
C353        H358   1.083       .  S
C354        C355   1.399       .  A
C354        C445   1.479       .  S
C355        C356   1.399       .  A
C355        H359   1.085       .  S
C356        C357   1.404       .  A
C356        C435   1.480       .  S
C357        H360   1.084       .  S
C361        C362   1.406       .  A
C361        C366   1.412       .  A
C361        C403   1.476       .  S
C362        C363   1.396       .  A
C362        H367   1.084       .  S
C363        C364   1.396       .  A
C363        C432   1.485       .  S
C364        C365   1.409       .  A
C364        H368   1.083       .  S
C365        C366   1.410       .  A
C365        C422   1.507       .  S
C366        H369   1.079       .  S
C370        C371   1.413       .  A
C370        C375   1.403       .  A
C370        C389   1.480       .  S
C371        C372   1.419       .  A
C371        H376   1.077       .  S
C372        C373   1.408       .  A
C372        C425   1.517       .  S
C373        C374   1.395       .  A
C373        H377   1.080       .  S
C374        C375   1.391       .  A
C374        C455   1.476       .  S
C375        H378   1.084       .  S
O379        C389   1.264       .  A
O379       V1467   1.893   1_455  S
O380        C390   1.264       .  A
O380        V387   1.895       .  S
O381        C391   1.265       .  A
O381        V387   1.900       .  S
O382        C392   1.264       .  A
O382        V927   1.897   1_545  S
O383        C392   1.264       .  A
O383        V928   1.897   1_545  S
O384        C391   1.266       .  A
O384        V388   1.902       .  S
O385        C390   1.266       .  A
O385        V388   1.905       .  S
O386        C389   1.266       .  A
O386       V1468   1.907       .  S
V387       O1459   1.893       .  S
V387        O922   1.897       .  S
V387        V388   2.086       .  T
V388        O923   1.897       .  S
V388       O1466   1.907       .  S
O393        C403   1.264       .  A
O393        V401   1.895       .  S
O394        C404   1.264       .  A
O395        C405   1.265       .  A
O395        V941   1.902   1_545  S
O396        C406   1.265       .  A
O396        V401   1.900       .  S
O397        C406   1.263       .  A
O397        V402   1.893       .  S
O398        C405   1.265       .  A
O398        V942   1.898   1_545  S
O399        C404   1.265       .  A
O400        C403   1.265       .  A
O400        V402   1.902       .  S
V401        O935   1.902       .  S
V401        V402   2.086       .  T
V402        O938   1.898       .  S
O407        C417   1.263       .  A
O407        V415   1.894       .  S
O408        C418   1.263       .  A
O408       V1495   1.893   1_455  S
O409        C419   1.266       .  A
O409        V415   1.901       .  S
O410        C420   1.266       .  A
O411        C420   1.264       .  A
O412       C1499   1.263       .  A
O412       V1496   1.894       .  S
O413        C418   1.266       .  A
O413       V1496   1.900       .  S
O414        C417   1.266       .  A
O414        V416   1.899       .  S
V415       O1488   1.893       .  S
V415        V416   2.087       .  T
V416       O1492   1.894       .  S
V416       O1493   1.900       .  S
C419       C1405   1.477       .  S
C419       O1492   1.263       .  A
C420       C1387   1.479       .  S
C421        C422   1.421       .  A
C421        C426   1.421       .  A
C421       Br428   1.929       .  S
C422        C423   1.409       .  A
C423        C424   1.390       .  A
C423       Br430   1.938       .  S
C424        C425   1.423       .  A
C424       Br429   1.937       .  S
C425        C426   1.427       .  A
C426       Br427   1.931       .  S
C431        C432   1.416       .  A
C431        C436   1.408       .  A
C431       Br438   1.933       .  S
C432        C433   1.410       .  A
C433        C434   1.408       .  A
C433       Br440   1.929       .  S
C434        C435   1.410       .  A
C434       Br439   1.929       .  S
C435        C436   1.408       .  A
C436       Br437   1.932       .  S
C441        C442   1.412       .  A
C441        C446   1.406       .  A
C441       Br448   1.931       .  S
C442        C443   1.412       .  A
C443        C444   1.409       .  A
C443       Br450   1.930       .  S
C444        C445   1.409       .  A
C444       Br449   1.930       .  S
C445        C446   1.408       .  A
C446       Br447   1.931       .  S
C451        C452   1.407       .  A
C451        C456   1.404       .  A
C451       Br458   1.932       .  S
C452        C453   1.411       .  A
C453        C454   1.408       .  A
C453       Br460   1.928       .  S
C454        C455   1.405       .  A
C454       Br459   1.926       .  S
C455        C456   1.412       .  A
C456       Br457   1.933       .  S
C461        C462   1.410       .  A
C461        C466   1.407       .  A
C461       Br468   1.930       .  S
C462       C1543   1.409       .  A
C462       C1409   1.475       .  S
C463       C1542   1.409       .  A
C463        C464   1.403       .  A
C463       Br470   1.931       .  S
C464       C1545   1.409       .  A
C464       Br469   1.931       .  S
C465       C1544   1.409       .  A
C465        C466   1.409       .  A
C466       Br467   1.929       .  S
C471       C1552   1.409   1_455  A
C471        C476   1.407       .  A
C471       Br478   1.929       .  S
C472       C1551   1.409       .  A
C472        C473   1.409       .  A
C472       C1407   1.476       .  S
C473        C474   1.407       .  A
C473       Br480   1.929       .  S
C474        C475   1.409       .  A
C474       Br479   1.929       .  S
C475       C1556   1.409       .  A
C476       C1555   1.409   1_455  A
C476       Br477   1.929       .  S
C481       C1562   1.410       .  A
C481        C486   1.409       .  A
C481       Br488   1.929       .  S
C482       C1561   1.410   1_455  A
C482        C483   1.409       .  A
C483        C484   1.406       .  A
C483       Br490   1.931       .  S
C484       C1565   1.410       .  A
C484       Br489   1.930       .  S
C485       C1564   1.410       .  A
C485        C486   1.410       .  A
C486       Br487   1.929       .  S
C491       C1572   1.408       .  A
C491        C496   1.406       .  A
C491       Br498   1.929       .  S
C492       C1571   1.408       .  A
C492        C493   1.409   1_655  A
C493        C494   1.406       .  A
C493       Br500   1.930       .  S
C494       C1575   1.409   1_455  A
C494       Br499   1.930       .  S
C495       C1574   1.409       .  A
C495        C496   1.408       .  A
C496       Br497   1.929       .  S
C501        C502   1.409       .  A
C501        C506   1.408       .  A
C501       Br508   1.928       .  S
C503        C504   1.405       .  A
C503       Br510   1.929       .  S
C504       Br509   1.928       .  S
C505        C506   1.408       .  A
C506       Br507   1.928       .  S
C511        C512   1.410       .  A
C511        C516   1.411       .  A
C511       Br518   1.929       .  S
C513        C514   1.404       .  A
C513       Br520   1.933       .  S
C514       Br519   1.930       .  S
C515        C516   1.412       .  A
C516       Br517   1.930       .  S
C521        C522   1.409       .  A
C521        C526   1.405       .  A
C521       Br528   1.930       .  S
C523        C524   1.406       .  A
C523       Br530   1.930       .  S
C524       Br529   1.931       .  S
C525        C526   1.409       .  A
C526       Br527   1.930       .  S
C531        C536   1.405       .  A
C531       Br538   1.929       .  S
C532        C533   1.408       .  A
C533        C534   1.406       .  A
C533       Br540   1.929       .  S
C534        C535   1.409       .  A
C534       Br539   1.929       .  S
C536       Br537   1.929       .  S
C541        C542   1.408       .  A
C541        C546   1.408       .  A
C541        C946   1.475       .  S
C542        C813   1.401       .  A
C542        H547   1.084       .  S
C543        C812   1.401       .  A
C543        C544   1.398       .  A
C543        C792   1.475       .  S
C544        C545   1.396       .  A
C544        H548   1.085       .  S
C545        C816   1.399       .  A
C545        C802   1.473   1_554  S
C546        C815   1.399       .  A
C546        H549   1.083       .  S
C550        C551   1.406       .  A
C550        C555   1.410       .  A
C550        C687   1.475       .  S
C551        C552   1.399       .  A
C551        H556   1.084       .  S
C552        C553   1.398       .  A
C552        C795   1.476       .  S
C553        C554   1.399       .  A
C553        H557   1.085       .  S
C554        C555   1.402       .  A
C554        C782   1.480       .  S
C555        H558   1.083   1_554  S
C559        C560   1.410       .  A
C559        C564   1.410       .  A
C559        C675   1.480       .  S
C560        C561   1.400   1_556  A
C560        H565   1.084       .  S
C561        C562   1.397       .  A
C561        C775   1.477   1_554  S
C562        C563   1.400   1_554  A
C562        H566   1.085       .  S
C563        C564   1.403       .  A
C563        C785   1.484       .  S
C564        H567   1.083       .  S
C568        C569   1.407       .  A
C568        C573   1.410       .  A
C568        C688   1.476       .  S
C569        C570   1.400       .  A
C569        H574   1.083       .  S
C570        C571   1.398       .  A
C570        C805   1.474       .  S
C571        C572   1.398       .  A
C571        H575   1.085       .  S
C572        C573   1.400       .  A
C572        C772   1.476       .  S
C573        H576   1.084       .  S
C577        C578   1.408       .  A
C577        C582   1.411   1_655  A
C577       C1770   1.479       .  S
C578        C579   1.400       .  A
C578        H583   1.084       .  S
C579        C580   1.397       .  A
C579        C762   1.474       .  S
C580        C581   1.398       .  A
C580        H584   1.085       .  S
C581        C582   1.403   1_655  A
C581        C752   1.480   1_655  S
C582        H585   1.083       .  S
C586        C587   1.410       .  A
C586        C591   1.411       .  A
C586        C661   1.481       .  S
C587        C588   1.402       .  A
C587        H592   1.083       .  S
C588        C589   1.397       .  A
C588        C745   1.477       .  S
C589        C590   1.398       .  A
C589        H593   1.085       .  S
C590        C591   1.403       .  A
C590        C755   1.481       .  S
C591        H594   1.083       .  S
C595        C596   1.410   1_455  A
C595        C600   1.407       .  A
C595       C1769   1.477       .  S
C596        C597   1.401       .  A
C596        H601   1.083       .  S
C597        C598   1.397   1_655  A
C597       C1822   1.476       .  S
C598        C599   1.398       .  A
C598        H602   1.085   1_455  S
C599        C600   1.400       .  A
C599       C1812   1.475       .  S
C600        H603   1.083       .  S
C604        C605   1.409       .  A
C604        C609   1.408       .  A
C604        C662   1.476       .  S
C605        C606   1.400       .  A
C605        H610   1.084       .  S
C606        C607   1.396       .  A
C606        C765   1.474       .  S
C607        C608   1.397       .  A
C607        H611   1.085       .  S
C608        C609   1.400       .  A
C608        C735   1.475       .  S
C609        H612   1.084       .  S
C613        C614   1.408       .  A
C613        C618   1.411       .  A
C613        C674   1.479       .  S
C614        C615   1.399       .  A
C614        H619   1.084       .  S
C615        C616   1.397       .  A
C615        C722   1.476       .  S
C616        C617   1.399       .  A
C616        H620   1.085       .  S
C617        C618   1.404       .  A
C617        C712   1.483       .  S
C618        H621   1.083       .  S
C622        C623   1.409       .  A
C622        C627   1.409       .  A
C622        C660   1.480       .  S
C623        C624   1.401       .  A
C623        H628   1.083       .  S
C624        C625   1.399       .  A
C624        C715   1.479       .  S
C625        C626   1.399       .  A
C625        H629   1.085       .  S
C626        C627   1.404       .  A
C626        C705   1.480       .  S
C627        H630   1.084       .  S
C631        C632   1.406       .  A
C631        C636   1.412       .  A
C631        C673   1.476       .  S
C632        C633   1.396       .  A
C632        H637   1.084       .  S
C633        C634   1.396       .  A
C633        C702   1.485       .  S
C634        C635   1.409       .  A
C634        H638   1.083       .  S
C635        C636   1.410       .  A
C635        C692   1.507       .  S
C636        H639   1.079       .  S
C640        C641   1.413       .  A
C640        C645   1.403       .  A
C640        C659   1.480       .  S
C641        C642   1.419       .  A
C641        H646   1.077       .  S
C642        C643   1.408       .  A
C642        C695   1.517       .  S
C643        C644   1.395       .  A
C643        H647   1.080       .  S
C644        C645   1.391       .  A
C644        C725   1.476       .  S
C645        H648   1.084       .  S
O649        C659   1.264       .  A
O649       V1737   1.893   1_455  S
O650        C660   1.264       .  A
O650        V657   1.895       .  S
O651        C661   1.265       .  A
O651        V657   1.900       .  S
O652        C662   1.264       .  A
O653        C662   1.264       .  A
O654        C661   1.266       .  A
O654        V658   1.902       .  S
O655        C660   1.266       .  A
O655        V658   1.905       .  S
O656        C659   1.266       .  A
O656       V1738   1.907       .  S
V657       O1729   1.893       .  S
V657        V658   2.086       .  T
V658       O1736   1.907       .  S
O663        C673   1.264       .  A
O663        V671   1.895   1_554  S
O664        C674   1.264       .  A
O664        V941   1.899       .  S
O665        C675   1.266       .  A
O666        C676   1.265       .  A
O666        V671   1.900   1_554  S
O667        C676   1.263       .  A
O667        V672   1.893       .  S
O668        C675   1.265   1_554  A
O669        C674   1.265       .  A
O669        V942   1.899       .  S
O670        C673   1.265       .  A
O670        V672   1.902       .  S
V671        O934   1.899       .  S
V671        V672   2.086   1_556  T
V672        O939   1.899   1_554  S
C676        C811   1.475       .  S
O677        C687   1.263       .  A
O677        V685   1.894       .  S
O678        C688   1.263       .  A
O678       V1765   1.893   1_456  S
O679        C689   1.266       .  A
O679        V685   1.901       .  S
O680        C690   1.266       .  A
O680        V955   1.901       .  S
O681        C690   1.264       .  A
O681        V956   1.896       .  S
O682       C1769   1.263       .  A
O682       V1766   1.894   1_554  S
O683        C688   1.266       .  A
O683       V1766   1.900       .  S
O684        C687   1.266       .  A
O684        V686   1.899   1_554  S
V685       O1758   1.893   1_554  S
V685        O950   1.901   1_554  S
V685        V686   2.087   1_554  T
V686        O951   1.896       .  S
V686       O1762   1.894   1_556  S
V686       O1763   1.900       .  S
C689       C1675   1.477       .  S
C689       O1762   1.263       .  A
C690       C1657   1.479       .  S
C691        C692   1.421       .  A
C691        C696   1.421       .  A
C691       Br698   1.929       .  S
C692        C693   1.409       .  A
C693        C694   1.390       .  A
C693       Br700   1.938       .  S
C694        C695   1.423       .  A
C694       Br699   1.937       .  S
C695        C696   1.427       .  A
C696       Br697   1.931       .  S
C701        C702   1.416       .  A
C701        C706   1.408       .  A
C701       Br708   1.933       .  S
C702        C703   1.410   1_565  A
C703        C704   1.408       .  A
C703       Br710   1.929       .  S
C704        C705   1.410   1_545  A
C704       Br709   1.929       .  S
C705        C706   1.408       .  A
C706       Br707   1.932       .  S
C711        C712   1.412       .  A
C711        C716   1.406       .  A
C711       Br718   1.931       .  S
C712        C713   1.412       .  A
C713        C714   1.409       .  A
C713       Br720   1.930   1_565  S
C714        C715   1.409       .  A
C714       Br719   1.930   1_565  S
C715        C716   1.408       .  A
C716       Br717   1.931       .  S
C721        C722   1.407       .  A
C721        C726   1.404       .  A
C721       Br728   1.932   1_565  S
C722        C723   1.411       .  A
C723        C724   1.408       .  A
C723       Br730   1.928       .  S
C724        C725   1.405       .  A
C724       Br729   1.926       .  S
C725        C726   1.412       .  A
C726       Br727   1.933   1_565  S
C731        C732   1.410       .  A
C731        C736   1.407       .  A
C731       Br738   1.930       .  S
C732       C1813   1.409       .  A
C732       C1679   1.475       .  S
C733       C1812   1.409       .  A
C733        C734   1.403       .  A
C733       Br740   1.931       .  S
C734       C1815   1.409       .  A
C734       Br739   1.931       .  S
C735       C1814   1.409       .  A
C735        C736   1.409       .  A
C736       Br737   1.929       .  S
C741       C1822   1.409   1_455  A
C741        C746   1.407       .  A
C741       Br748   1.929       .  S
C742       C1821   1.409       .  A
C742        C743   1.409       .  A
C742       C1677   1.476       .  S
C743        C744   1.407       .  A
C743       Br750   1.929       .  S
C744        C745   1.409       .  A
C744       Br749   1.929       .  S
C745       C1826   1.409       .  A
C746       C1825   1.409   1_455  A
C746       Br747   1.929       .  S
C751       C1832   1.410       .  A
C751        C756   1.409       .  A
C751       Br758   1.929       .  S
C752       C1831   1.410   1_455  A
C752        C753   1.409       .  A
C753        C754   1.406       .  A
C753       Br760   1.931       .  S
C754       C1835   1.410       .  A
C754       Br759   1.930       .  S
C755       C1834   1.410       .  A
C755        C756   1.410       .  A
C756       Br757   1.929       .  S
C761       C1842   1.408       .  A
C761        C766   1.406       .  A
C761       Br768   1.929       .  S
C762       C1841   1.408       .  A
C762        C763   1.409   1_655  A
C763        C764   1.406       .  A
C763       Br770   1.930       .  S
C764       C1845   1.409   1_455  A
C764       Br769   1.930       .  S
C765       C1844   1.409       .  A
C765        C766   1.408       .  A
C766       Br767   1.929       .  S
C771        C772   1.409   1_554  A
C771        C776   1.408       .  A
C771       Br778   1.928       .  S
C772       C1043   1.408       .  A
C773       C1042   1.408       .  A
C773        C774   1.405       .  A
C773       Br780   1.929       .  S
C774       C1045   1.409       .  A
C774       Br779   1.928       .  S
C775       C1044   1.409       .  A
C775        C776   1.408   1_556  A
C776       Br777   1.928       .  S
C781        C782   1.410       .  A
C781        C786   1.411       .  A
C781       Br788   1.929       .  S
C782       C1053   1.409   1_554  A
C783       C1052   1.409       .  A
C783        C784   1.404       .  A
C783       Br790   1.933       .  S
C784       C1055   1.411       .  A
C784       Br789   1.930       .  S
C785       C1054   1.411       .  A
C785        C786   1.412   1_556  A
C786       Br787   1.930       .  S
C791        C792   1.409       .  A
C791        C796   1.405       .  A
C791       Br798   1.930       .  S
C792       C1063   1.408   1_554  A
C793       C1062   1.408       .  A
C793        C794   1.406       .  A
C793       Br800   1.930       .  S
C794       C1065   1.411       .  A
C794       Br799   1.931       .  S
C795       C1064   1.411   1_554  A
C795        C796   1.409       .  A
C796       Br797   1.930       .  S
C801       C1072   1.408       .  A
C801        C806   1.405       .  A
C801       Br808   1.929       .  S
C802       C1071   1.408       .  A
C802        C803   1.408   1_556  A
C803        C804   1.406       .  A
C803       Br810   1.929       .  S
C804        C805   1.409   1_554  A
C804       Br809   1.929       .  S
C805       C1076   1.409       .  A
C806       C1075   1.409       .  A
C806       Br807   1.929       .  S
C811        C812   1.408       .  A
C811        C816   1.408       .  A
C812        H817   1.084       .  S
C813        C814   1.398       .  A
C813       C1062   1.475       .  S
C814        C815   1.396       .  A
C814        H818   1.085       .  S
C815       C1072   1.473       .  S
C816        H819   1.083   1_554  S
C820        C821   1.406       .  A
C820        C825   1.410       .  A
C820        C957   1.475       .  S
C821        C822   1.399       .  A
C821        H826   1.084       .  S
C822        C823   1.398       .  A
C822       C1065   1.476       .  S
C823        C824   1.399       .  A
C823        H827   1.085       .  S
C824        C825   1.402       .  A
C824       C1052   1.480       .  S
C825        H828   1.083       .  S
C829        C830   1.410       .  A
C829        C834   1.410       .  A
C829        C945   1.480       .  S
C830        C831   1.400       .  A
C830        H835   1.084       .  S
C831        C832   1.397       .  A
C831       C1045   1.477       .  S
C832        C833   1.400       .  A
C832        H836   1.085       .  S
C833        C834   1.403       .  A
C833       C1055   1.484       .  S
C834        H837   1.083       .  S
C838        C839   1.407       .  A
C838        C843   1.410       .  A
C838        C958   1.476       .  S
C839        C840   1.400       .  A
C839        H844   1.083       .  S
C840        C841   1.398       .  A
C840       C1075   1.474       .  S
C841        C842   1.398       .  A
C841        H845   1.085       .  S
C842        C843   1.400       .  A
C842       C1042   1.476       .  S
C843        H846   1.084       .  S
C847        C848   1.408       .  A
C847        C852   1.411   1_655  A
C847       C2040   1.479       .  S
C848        C849   1.400       .  A
C848        H853   1.084       .  S
C849        C850   1.397       .  A
C849       C1032   1.474       .  S
C850        C851   1.398       .  A
C850        H854   1.085       .  S
C851        C852   1.403   1_655  A
C851       C1022   1.480   1_655  S
C852        H855   1.083       .  S
C856        C857   1.410       .  A
C856        C861   1.411       .  A
C856        C931   1.481       .  S
C857        C858   1.402       .  A
C857        H862   1.083       .  S
C858        C859   1.397       .  A
C858       C1015   1.477       .  S
C859        C860   1.398       .  A
C859        H863   1.085       .  S
C860        C861   1.403       .  A
C860       C1025   1.481       .  S
C861        H864   1.083       .  S
C865        C866   1.410   1_455  A
C865        C870   1.407       .  A
C865       C2039   1.477       .  S
C866        C867   1.401       .  A
C866        H871   1.083       .  S
C867        C868   1.397   1_655  A
C867       C2092   1.476       .  S
C868        C869   1.398       .  A
C868        H872   1.085   1_455  S
C869        C870   1.400       .  A
C869       C2082   1.475       .  S
C870        H873   1.083       .  S
C874        C875   1.409       .  A
C874        C879   1.408       .  A
C874        C932   1.476       .  S
C875        C876   1.400       .  A
C875        H880   1.084       .  S
C876        C877   1.396       .  A
C876       C1035   1.474       .  S
C877        C878   1.397       .  A
C877        H881   1.085       .  S
C878        C879   1.400       .  A
C878       C1005   1.475       .  S
C879        H882   1.084       .  S
C883        C884   1.408       .  A
C883        C888   1.411       .  A
C883        C944   1.479       .  S
C884        C885   1.399       .  A
C884        H889   1.084       .  S
C885        C886   1.397       .  A
C885        C992   1.476       .  S
C886        C887   1.399       .  A
C886        H890   1.085       .  S
C887        C888   1.404       .  A
C887        C982   1.483       .  S
C888        H891   1.083       .  S
C892        C893   1.409       .  A
C892        C897   1.409       .  A
C892        C930   1.480       .  S
C893        C894   1.401       .  A
C893        H898   1.083       .  S
C894        C895   1.399       .  A
C894        C985   1.479       .  S
C895        C896   1.399       .  A
C895        H899   1.085       .  S
C896        C897   1.404       .  A
C896        C975   1.480       .  S
C897        H900   1.084       .  S
C901        C902   1.406       .  A
C901        C906   1.412       .  A
C901        C943   1.476       .  S
C902        C903   1.396       .  A
C902        H907   1.084       .  S
C903        C904   1.396       .  A
C903        C972   1.485       .  S
C904        C905   1.409       .  A
C904        H908   1.083       .  S
C905        C906   1.410       .  A
C905        C962   1.507       .  S
C906        H909   1.079       .  S
C910        C911   1.413       .  A
C910        C915   1.403       .  A
C910        C929   1.480       .  S
C911        C912   1.419       .  A
C911        H916   1.077       .  S
C912        C913   1.408       .  A
C912        C965   1.517       .  S
C913        C914   1.395       .  A
C913        H917   1.080       .  S
C914        C915   1.391       .  A
C914        C995   1.476       .  S
C915        H918   1.084       .  S
O919        C929   1.264       .  A
O919       V2007   1.893   1_455  S
O920        C930   1.264       .  A
O920        V927   1.895       .  S
O921        C931   1.265       .  A
O921        V927   1.900       .  S
O922        C932   1.264       .  A
O923        C932   1.264       .  A
O924        C931   1.266       .  A
O924        V928   1.902       .  S
O925        C930   1.266       .  A
O925        V928   1.905       .  S
O926        C929   1.266       .  A
O926       V2008   1.907       .  S
V927       O1999   1.893       .  S
V927        V928   2.086       .  T
V928       O2006   1.907       .  S
O933        C943   1.264       .  A
O933        V941   1.895       .  S
O934        C944   1.264       .  A
O935        C945   1.265       .  A
O936        C946   1.265       .  A
O936        V941   1.900       .  S
O937        C946   1.263       .  A
O937        V942   1.893       .  S
O938        C945   1.265       .  A
O939        C944   1.265       .  A
O940        C943   1.265       .  A
O940        V942   1.902       .  S
V941        V942   2.086       .  T
O947        C957   1.263       .  A
O947        V955   1.894       .  S
O948        C958   1.263       .  A
O948       V2035   1.893   1_455  S
O949        C959   1.266       .  A
O949        V955   1.901       .  S
O950        C960   1.266       .  A
O951        C960   1.264       .  A
O952       C2039   1.263       .  A
O952       V2036   1.894       .  S
O953        C958   1.266       .  A
O953       V2036   1.900       .  S
O954        C957   1.266       .  A
O954        V956   1.899       .  S
V955       O2028   1.893       .  S
V955        V956   2.087       .  T
V956       O2032   1.894       .  S
V956       O2033   1.900       .  S
C959       C1945   1.477       .  S
C959       O2032   1.263       .  A
C960       C1927   1.479       .  S
C961        C962   1.421       .  A
C961        C966   1.421       .  A
C961       Br968   1.929       .  S
C962        C963   1.409       .  A
C963        C964   1.390       .  A
C963       Br970   1.938       .  S
C964        C965   1.423       .  A
C964       Br969   1.937       .  S
C965        C966   1.427       .  A
C966       Br967   1.931       .  S
C971        C972   1.416       .  A
C971        C976   1.408       .  A
C971       Br978   1.933       .  S
C972        C973   1.410   1_565  A
C973        C974   1.408       .  A
C973       Br980   1.929       .  S
C974        C975   1.410   1_545  A
C974       Br979   1.929       .  S
C975        C976   1.408       .  A
C976       Br977   1.932       .  S
C981        C982   1.412       .  A
C981        C986   1.406       .  A
C981       Br988   1.931       .  S
C982        C983   1.412       .  A
C983        C984   1.409       .  A
C983       Br990   1.930   1_565  S
C984        C985   1.409       .  A
C984       Br989   1.930   1_565  S
C985        C986   1.408       .  A
C986       Br987   1.931       .  S
C991        C992   1.407       .  A
C991        C996   1.404       .  A
C991       Br998   1.932   1_565  S
C992        C993   1.411       .  A
C993        C994   1.408       .  A
C993      Br1000   1.928       .  S
C994        C995   1.405       .  A
C994       Br999   1.926       .  S
C995        C996   1.412       .  A
C996       Br997   1.933   1_565  S
C1001      C1002   1.410       .  A
C1001      C1006   1.407       .  A
C1001     Br1008   1.930       .  S
C1002      C2083   1.409       .  A
C1002      C1949   1.475       .  S
C1003      C2082   1.409       .  A
C1003      C1004   1.403       .  A
C1003     Br1010   1.931       .  S
C1004      C2085   1.409       .  A
C1004     Br1009   1.931       .  S
C1005      C2084   1.409       .  A
C1005      C1006   1.409       .  A
C1006     Br1007   1.929       .  S
C1011      C2092   1.409   1_455  A
C1011      C1016   1.407       .  A
C1011     Br1018   1.929       .  S
C1012      C2091   1.409       .  A
C1012      C1013   1.409       .  A
C1012      C1947   1.476       .  S
C1013      C1014   1.407       .  A
C1013     Br1020   1.929       .  S
C1014      C1015   1.409       .  A
C1014     Br1019   1.929       .  S
C1015      C2096   1.409       .  A
C1016      C2095   1.409   1_455  A
C1016     Br1017   1.929       .  S
C1021      C2102   1.410       .  A
C1021      C1026   1.409       .  A
C1021     Br1028   1.929       .  S
C1022      C2101   1.410   1_455  A
C1022      C1023   1.409       .  A
C1023      C1024   1.406       .  A
C1023     Br1030   1.931       .  S
C1024      C2105   1.410       .  A
C1024     Br1029   1.930       .  S
C1025      C2104   1.410       .  A
C1025      C1026   1.410       .  A
C1026     Br1027   1.929       .  S
C1031      C2112   1.408       .  A
C1031      C1036   1.406       .  A
C1031     Br1038   1.929       .  S
C1032      C2111   1.408       .  A
C1032      C1033   1.409   1_655  A
C1033      C1034   1.406       .  A
C1033     Br1040   1.930       .  S
C1034      C2115   1.409   1_455  A
C1034     Br1039   1.930       .  S
C1035      C2114   1.409       .  A
C1035      C1036   1.408       .  A
C1036     Br1037   1.929       .  S
C1041      C1042   1.409       .  A
C1041      C1046   1.408       .  A
C1041     Br1048   1.928       .  S
C1043      C1044   1.405       .  A
C1043     Br1050   1.929       .  S
C1044     Br1049   1.928       .  S
C1045      C1046   1.408       .  A
C1046     Br1047   1.928       .  S
C1051      C1052   1.410       .  A
C1051      C1056   1.411       .  A
C1051     Br1058   1.929       .  S
C1053      C1054   1.404       .  A
C1053     Br1060   1.933       .  S
C1054     Br1059   1.930       .  S
C1055      C1056   1.412       .  A
C1056     Br1057   1.930       .  S
C1061      C1062   1.409       .  A
C1061      C1066   1.405       .  A
C1061     Br1068   1.930       .  S
C1063      C1064   1.406       .  A
C1063     Br1070   1.930       .  S
C1064     Br1069   1.931       .  S
C1065      C1066   1.409       .  A
C1066     Br1067   1.930       .  S
C1071      C1076   1.405       .  A
C1071     Br1078   1.929       .  S
C1072      C1073   1.408       .  A
C1073      C1074   1.406       .  A
C1073     Br1080   1.929       .  S
C1074      C1075   1.409       .  A
C1074     Br1079   1.929       .  S
C1076     Br1077   1.929       .  S
C1081      C1082   1.408       .  A
C1081      C1086   1.408       .  A
C1081      C1486   1.475       .  S
C1082      C1353   1.401       .  A
C1082      H1087   1.084       .  S
C1083      C1352   1.401       .  A
C1083      C1084   1.398       .  A
C1083      C1332   1.475       .  S
C1084      C1085   1.396       .  A
C1084      H1088   1.085       .  S
C1085      C1356   1.399       .  A
C1085      C1342   1.473   1_554  S
C1086      C1355   1.399       .  A
C1086      H1089   1.083       .  S
C1090      C1091   1.406       .  A
C1090      C1095   1.410       .  A
C1090      C1227   1.475       .  S
C1091      C1092   1.399       .  A
C1091      H1096   1.084       .  S
C1092      C1093   1.398       .  A
C1092      C1335   1.476       .  S
C1093      C1094   1.399       .  A
C1093      H1097   1.085       .  S
C1094      C1095   1.402       .  A
C1094      C1322   1.480       .  S
C1095      H1098   1.083   1_554  S
C1099      C1100   1.410       .  A
C1099      C1104   1.410       .  A
C1099      C1215   1.480       .  S
C1100      C1101   1.400   1_556  A
C1100      H1105   1.084       .  S
C1101      C1102   1.397       .  A
C1101      C1315   1.477   1_554  S
C1102      C1103   1.400   1_554  A
C1102      H1106   1.085       .  S
C1103      C1104   1.403       .  A
C1103      C1325   1.484       .  S
C1104      H1107   1.083       .  S
C1108      C1109   1.407       .  A
C1108      C1113   1.410       .  A
C1108      C1228   1.476       .  S
C1109      C1110   1.400       .  A
C1109      H1114   1.083       .  S
C1110      C1111   1.398       .  A
C1110      C1345   1.474       .  S
C1111      C1112   1.398       .  A
C1111      H1115   1.085       .  S
C1112      C1113   1.400       .  A
C1112      C1312   1.476       .  S
C1113      H1116   1.084       .  S
C1117      C1118   1.408       .  A
C1117      C1122   1.411       .  A
C1118      C1119   1.400       .  A
C1118      H1123   1.084       .  S
C1119      C1120   1.397       .  A
C1119      C1302   1.474       .  S
C1120      C1121   1.398       .  A
C1120      H1124   1.085       .  S
C1121      C1122   1.403       .  A
C1121      C1292   1.480       .  S
C1122      H1125   1.083       .  S
C1126      C1127   1.410   1_455  A
C1126      C1131   1.411       .  A
C1126      C1201   1.481       .  S
C1127      C1128   1.402       .  A
C1127      H1132   1.083       .  S
C1128      C1129   1.397       .  A
C1128      C1285   1.477       .  S
C1129      C1130   1.398   1_655  A
C1129      H1133   1.085       .  S
C1130      C1131   1.403       .  A
C1130      C1295   1.481       .  S
C1131      H1134   1.083       .  S
C1135      C1136   1.410       .  A
C1135      C1140   1.407       .  A
C1136      C1137   1.401       .  A
C1136      H1141   1.083       .  S
C1137      C1138   1.397       .  A
C1138      C1139   1.398       .  A
C1138      H1142   1.085       .  S
C1139      C1140   1.400       .  A
C1140      H1143   1.083       .  S
C1144      C1145   1.409       .  A
C1144      C1149   1.408   1_655  A
C1144      C1202   1.476       .  S
C1145      C1146   1.400       .  A
C1145      H1150   1.084       .  S
C1146      C1147   1.396       .  A
C1146      C1305   1.474       .  S
C1147      C1148   1.397       .  A
C1147      H1151   1.085       .  S
C1148      C1149   1.400   1_655  A
C1148      C1275   1.475   1_655  S
C1149      H1152   1.084       .  S
C1153      C1154   1.408       .  A
C1153      C1158   1.411       .  A
C1153      C1214   1.479       .  S
C1154      C1155   1.399       .  A
C1154      H1159   1.084       .  S
C1155      C1156   1.397       .  A
C1155      C1262   1.476       .  S
C1156      C1157   1.399       .  A
C1156      H1160   1.085       .  S
C1157      C1158   1.404       .  A
C1157      C1252   1.483       .  S
C1158      H1161   1.083       .  S
C1162      C1163   1.409       .  A
C1162      C1167   1.409       .  A
C1162      C1200   1.480       .  S
C1163      C1164   1.401       .  A
C1163      H1168   1.083       .  S
C1164      C1165   1.399       .  A
C1164      C1255   1.479       .  S
C1165      C1166   1.399       .  A
C1165      H1169   1.085       .  S
C1166      C1167   1.404       .  A
C1166      C1245   1.480       .  S
C1167      H1170   1.084       .  S
C1171      C1172   1.406       .  A
C1171      C1176   1.412       .  A
C1171      C1213   1.476       .  S
C1172      C1173   1.396       .  A
C1172      H1177   1.084       .  S
C1173      C1174   1.396       .  A
C1173      C1242   1.485       .  S
C1174      C1175   1.409       .  A
C1174      H1178   1.083       .  S
C1175      C1176   1.410       .  A
C1175      C1232   1.507       .  S
C1176      H1179   1.079       .  S
C1180      C1181   1.413       .  A
C1180      C1185   1.403       .  A
C1180      C1199   1.480       .  S
C1181      C1182   1.419       .  A
C1181      H1186   1.077       .  S
C1182      C1183   1.408       .  A
C1182      C1235   1.517       .  S
C1183      C1184   1.395       .  A
C1183      H1187   1.080       .  S
C1184      C1185   1.391       .  A
C1184      C1265   1.476       .  S
C1185      H1188   1.084       .  S
O1189      C1199   1.264       .  A
O1190      C1200   1.264       .  A
O1190      V1197   1.895       .  S
O1191      C1201   1.265   1_655  A
O1191      V1197   1.900       .  S
O1192      C1202   1.264       .  A
O1192      V1737   1.897   1_545  S
O1193      C1202   1.264   1_455  A
O1193      V1738   1.897   1_545  S
O1194      C1201   1.266       .  A
O1194      V1198   1.902       .  S
O1195      C1200   1.266       .  A
O1195      V1198   1.905   1_655  S
O1196      C1199   1.266       .  A
V1197      O1732   1.897       .  S
V1197      V1198   2.086   1_655  T
V1198      O1733   1.897       .  S
O1203      C1213   1.264       .  A
O1203      V1211   1.895   1_554  S
O1204      C1214   1.264       .  A
O1204      V1481   1.899       .  S
O1205      C1215   1.266       .  A
O1205      V1751   1.902   1_545  S
O1206      C1216   1.265       .  A
O1206      V1211   1.900   1_554  S
O1207      C1216   1.263       .  A
O1207      V1212   1.893       .  S
O1208      C1215   1.265   1_554  A
O1208      V1752   1.898   1_545  S
O1209      C1214   1.265       .  A
O1209      V1482   1.899       .  S
O1210      C1213   1.265       .  A
O1210      V1212   1.902       .  S
V1211      O1474   1.899       .  S
V1211      O1745   1.902       .  S
V1211      V1212   2.086   1_556  T
V1212      O1748   1.898       .  S
V1212      O1479   1.899   1_554  S
C1216      C1351   1.475       .  S
O1217      C1227   1.263       .  A
O1217      V1225   1.894       .  S
O1218      C1228   1.263       .  A
O1219      C1229   1.266       .  A
O1219      V1225   1.901   1_455  S
O1220      C1230   1.266       .  A
O1220      V1495   1.901       .  S
O1221      C1230   1.264       .  A
O1221      V1496   1.896   1_655  S
O1223      C1228   1.266       .  A
O1224      C1227   1.266       .  A
O1224      V1226   1.899   1_654  S
V1225      O1490   1.901   1_554  S
V1225      V1226   2.087   1_654  T
V1226      O1491   1.896   1_455  S
C1231      C1232   1.421       .  A
C1231      C1236   1.421       .  A
C1231     Br1238   1.929       .  S
C1232      C1233   1.409       .  A
C1233      C1234   1.390       .  A
C1233     Br1240   1.938       .  S
C1234      C1235   1.423       .  A
C1234     Br1239   1.937       .  S
C1235      C1236   1.427       .  A
C1236     Br1237   1.931       .  S
C1241      C1242   1.416       .  A
C1241      C1246   1.408       .  A
C1241     Br1248   1.933       .  S
C1242      C1243   1.410       .  A
C1243      C1244   1.408       .  A
C1243     Br1250   1.929       .  S
C1244      C1245   1.410       .  A
C1244     Br1249   1.929       .  S
C1245      C1246   1.408       .  A
C1246     Br1247   1.932       .  S
C1251      C1252   1.412       .  A
C1251      C1256   1.406       .  A
C1251     Br1258   1.931       .  S
C1252      C1253   1.412       .  A
C1253      C1254   1.409       .  A
C1253     Br1260   1.930       .  S
C1254      C1255   1.409       .  A
C1254     Br1259   1.930       .  S
C1255      C1256   1.408       .  A
C1256     Br1257   1.931       .  S
C1261      C1262   1.407       .  A
C1261      C1266   1.404       .  A
C1261     Br1268   1.932       .  S
C1262      C1263   1.411       .  A
C1263      C1264   1.408       .  A
C1263     Br1270   1.928       .  S
C1264      C1265   1.405       .  A
C1264     Br1269   1.926       .  S
C1265      C1266   1.412       .  A
C1266     Br1267   1.933       .  S
C1271      C1272   1.410   1_655  A
C1271      C1276   1.407       .  A
C1271     Br1278   1.930       .  S
C1273      C1274   1.403       .  A
C1273     Br1280   1.931       .  S
C1274     Br1279   1.931       .  S
C1275      C1276   1.409   1_455  A
C1276     Br1277   1.929       .  S
C1281      C1286   1.407       .  A
C1281     Br1288   1.929       .  S
C1282      C1283   1.409       .  A
C1283      C1284   1.407       .  A
C1283     Br1290   1.929       .  S
C1284      C1285   1.409       .  A
C1284     Br1289   1.929       .  S
C1286     Br1287   1.929       .  S
C1291      C1296   1.409       .  A
C1291     Br1298   1.929       .  S
C1292      C1293   1.409       .  A
C1293      C1294   1.406       .  A
C1293     Br1300   1.931       .  S
C1294     Br1299   1.930       .  S
C1295      C1296   1.410   1_455  A
C1296     Br1297   1.929       .  S
C1301      C1306   1.406       .  A
C1301     Br1308   1.929       .  S
C1302      C1303   1.409       .  A
C1303      C1304   1.406       .  A
C1303     Br1310   1.930       .  S
C1304     Br1309   1.930       .  S
C1305      C1306   1.408       .  A
C1306     Br1307   1.929       .  S
C1311      C1312   1.409   1_554  A
C1311      C1316   1.408       .  A
C1311     Br1318   1.928       .  S
C1312      C1583   1.408       .  A
C1313      C1582   1.408       .  A
C1313      C1314   1.405       .  A
C1313     Br1320   1.929       .  S
C1314      C1585   1.409       .  A
C1314     Br1319   1.928       .  S
C1315      C1584   1.409       .  A
C1315      C1316   1.408   1_556  A
C1316     Br1317   1.928       .  S
C1321      C1322   1.410       .  A
C1321      C1326   1.411       .  A
C1321     Br1328   1.929       .  S
C1322      C1593   1.409   1_554  A
C1323      C1592   1.409       .  A
C1323      C1324   1.404       .  A
C1323     Br1330   1.933       .  S
C1324      C1595   1.411       .  A
C1324     Br1329   1.930       .  S
C1325      C1594   1.411       .  A
C1325      C1326   1.412   1_556  A
C1326     Br1327   1.930       .  S
C1331      C1332   1.409       .  A
C1331      C1336   1.405       .  A
C1331     Br1338   1.930       .  S
C1332      C1603   1.408   1_554  A
C1333      C1602   1.408       .  A
C1333      C1334   1.406       .  A
C1333     Br1340   1.930       .  S
C1334      C1605   1.411       .  A
C1334     Br1339   1.931       .  S
C1335      C1604   1.411   1_554  A
C1335      C1336   1.409       .  A
C1336     Br1337   1.930       .  S
C1341      C1612   1.408       .  A
C1341      C1346   1.405       .  A
C1341     Br1348   1.929       .  S
C1342      C1611   1.408       .  A
C1342      C1343   1.408   1_556  A
C1343      C1344   1.406       .  A
C1343     Br1350   1.929       .  S
C1344      C1345   1.409   1_554  A
C1344     Br1349   1.929       .  S
C1345      C1616   1.409       .  A
C1346      C1615   1.409       .  A
C1346     Br1347   1.929       .  S
C1351      C1352   1.408       .  A
C1351      C1356   1.408       .  A
C1352      H1357   1.084       .  S
C1353      C1354   1.398       .  A
C1353      C1602   1.475       .  S
C1354      C1355   1.396       .  A
C1354      H1358   1.085       .  S
C1355      C1612   1.473       .  S
C1356      H1359   1.083   1_554  S
C1360      C1361   1.406       .  A
C1360      C1365   1.410       .  A
C1360      C1497   1.475       .  S
C1361      C1362   1.399       .  A
C1361      H1366   1.084       .  S
C1362      C1363   1.398       .  A
C1362      C1605   1.476       .  S
C1363      C1364   1.399       .  A
C1363      H1367   1.085       .  S
C1364      C1365   1.402       .  A
C1364      C1592   1.480       .  S
C1365      H1368   1.083       .  S
C1369      C1370   1.410       .  A
C1369      C1374   1.410       .  A
C1369      C1485   1.480       .  S
C1370      C1371   1.400       .  A
C1370      H1375   1.084       .  S
C1371      C1372   1.397       .  A
C1371      C1585   1.477       .  S
C1372      C1373   1.400       .  A
C1372      H1376   1.085       .  S
C1373      C1374   1.403       .  A
C1373      C1595   1.484       .  S
C1374      H1377   1.083       .  S
C1378      C1379   1.407       .  A
C1378      C1383   1.410       .  A
C1378      C1498   1.476       .  S
C1379      C1380   1.400       .  A
C1379      H1384   1.083       .  S
C1380      C1381   1.398       .  A
C1380      C1615   1.474       .  S
C1381      C1382   1.398       .  A
C1381      H1385   1.085       .  S
C1382      C1383   1.400       .  A
C1382      C1582   1.476       .  S
C1383      H1386   1.084       .  S
C1387      C1388   1.408       .  A
C1387      C1392   1.411       .  A
C1388      C1389   1.400       .  A
C1388      H1393   1.084       .  S
C1389      C1390   1.397       .  A
C1389      C1572   1.474       .  S
C1390      C1391   1.398       .  A
C1390      H1394   1.085       .  S
C1391      C1392   1.403       .  A
C1391      C1562   1.480       .  S
C1392      H1395   1.083       .  S
C1396      C1397   1.410   1_455  A
C1396      C1401   1.411       .  A
C1396      C1471   1.481       .  S
C1397      C1398   1.402       .  A
C1397      H1402   1.083       .  S
C1398      C1399   1.397       .  A
C1398      C1555   1.477       .  S
C1399      C1400   1.398   1_655  A
C1399      H1403   1.085       .  S
C1400      C1401   1.403       .  A
C1400      C1565   1.481       .  S
C1401      H1404   1.083       .  S
C1405      C1406   1.410       .  A
C1405      C1410   1.407       .  A
C1406      C1407   1.401       .  A
C1406      H1411   1.083       .  S
C1407      C1408   1.397       .  A
C1408      C1409   1.398       .  A
C1408      H1412   1.085       .  S
C1409      C1410   1.400       .  A
C1410      H1413   1.083       .  S
C1414      C1415   1.409       .  A
C1414      C1419   1.408   1_655  A
C1414      C1472   1.476       .  S
C1415      C1416   1.400       .  A
C1415      H1420   1.084       .  S
C1416      C1417   1.396       .  A
C1416      C1575   1.474       .  S
C1417      C1418   1.397       .  A
C1417      H1421   1.085       .  S
C1418      C1419   1.400   1_655  A
C1418      C1545   1.475   1_655  S
C1419      H1422   1.084       .  S
C1423      C1424   1.408       .  A
C1423      C1428   1.411       .  A
C1423      C1484   1.479       .  S
C1424      C1425   1.399       .  A
C1424      H1429   1.084       .  S
C1425      C1426   1.397       .  A
C1425      C1532   1.476       .  S
C1426      C1427   1.399       .  A
C1426      H1430   1.085       .  S
C1427      C1428   1.404       .  A
C1427      C1522   1.483       .  S
C1428      H1431   1.083       .  S
C1432      C1433   1.409       .  A
C1432      C1437   1.409       .  A
C1432      C1470   1.480       .  S
C1433      C1434   1.401       .  A
C1433      H1438   1.083       .  S
C1434      C1435   1.399       .  A
C1434      C1525   1.479       .  S
C1435      C1436   1.399       .  A
C1435      H1439   1.085       .  S
C1436      C1437   1.404       .  A
C1436      C1515   1.480       .  S
C1437      H1440   1.084       .  S
C1441      C1442   1.406       .  A
C1441      C1446   1.412       .  A
C1441      C1483   1.476       .  S
C1442      C1443   1.396       .  A
C1442      H1447   1.084       .  S
C1443      C1444   1.396       .  A
C1443      C1512   1.485       .  S
C1444      C1445   1.409       .  A
C1444      H1448   1.083       .  S
C1445      C1446   1.410       .  A
C1445      C1502   1.507       .  S
C1446      H1449   1.079       .  S
C1450      C1451   1.413       .  A
C1450      C1455   1.403       .  A
C1450      C1469   1.480       .  S
C1451      C1452   1.419       .  A
C1451      H1456   1.077       .  S
C1452      C1453   1.408       .  A
C1452      C1505   1.517       .  S
C1453      C1454   1.395       .  A
C1453      H1457   1.080       .  S
C1454      C1455   1.391       .  A
C1454      C1535   1.476       .  S
C1455      H1458   1.084       .  S
O1459      C1469   1.264       .  A
O1460      C1470   1.264       .  A
O1460      V1467   1.895       .  S
O1461      C1471   1.265   1_655  A
O1461      V1467   1.900       .  S
O1462      C1472   1.264       .  A
O1462      V2007   1.897   1_545  S
O1463      C1472   1.264   1_455  A
O1463      V2008   1.897   1_545  S
O1464      C1471   1.266       .  A
O1464      V1468   1.902       .  S
O1465      C1470   1.266       .  A
O1465      V1468   1.905   1_655  S
O1466      C1469   1.266       .  A
V1467      O2002   1.897       .  S
V1467      V1468   2.086   1_655  T
V1468      O2003   1.897       .  S
O1473      C1483   1.264       .  A
O1473      V1481   1.895       .  S
O1474      C1484   1.264       .  A
O1475      C1485   1.265       .  A
O1475      V2021   1.902   1_545  S
O1476      C1486   1.265       .  A
O1476      V1481   1.900       .  S
O1477      C1486   1.263       .  A
O1477      V1482   1.893       .  S
O1478      C1485   1.265       .  A
O1478      V2022   1.898   1_545  S
O1479      C1484   1.265       .  A
O1480      C1483   1.265       .  A
O1480      V1482   1.902       .  S
V1481      O2015   1.902       .  S
V1481      V1482   2.086       .  T
V1482      O2018   1.898       .  S
O1487      C1497   1.263       .  A
O1487      V1495   1.894       .  S
O1488      C1498   1.263       .  A
O1489      C1499   1.266       .  A
O1489      V1495   1.901   1_455  S
O1490      C1500   1.266       .  A
O1491      C1500   1.264       .  A
O1493      C1498   1.266       .  A
O1494      C1497   1.266       .  A
O1494      V1496   1.899   1_655  S
V1495      V1496   2.087   1_655  T
C1501      C1502   1.421       .  A
C1501      C1506   1.421       .  A
C1501     Br1508   1.929       .  S
C1502      C1503   1.409       .  A
C1503      C1504   1.390       .  A
C1503     Br1510   1.938       .  S
C1504      C1505   1.423       .  A
C1504     Br1509   1.937       .  S
C1505      C1506   1.427       .  A
C1506     Br1507   1.931       .  S
C1511      C1512   1.416       .  A
C1511      C1516   1.408       .  A
C1511     Br1518   1.933       .  S
C1512      C1513   1.410       .  A
C1513      C1514   1.408       .  A
C1513     Br1520   1.929       .  S
C1514      C1515   1.410       .  A
C1514     Br1519   1.929       .  S
C1515      C1516   1.408       .  A
C1516     Br1517   1.932       .  S
C1521      C1522   1.412       .  A
C1521      C1526   1.406       .  A
C1521     Br1528   1.931       .  S
C1522      C1523   1.412       .  A
C1523      C1524   1.409       .  A
C1523     Br1530   1.930       .  S
C1524      C1525   1.409       .  A
C1524     Br1529   1.930       .  S
C1525      C1526   1.408       .  A
C1526     Br1527   1.931       .  S
C1531      C1532   1.407       .  A
C1531      C1536   1.404       .  A
C1531     Br1538   1.932       .  S
C1532      C1533   1.411       .  A
C1533      C1534   1.408       .  A
C1533     Br1540   1.928       .  S
C1534      C1535   1.405       .  A
C1534     Br1539   1.926       .  S
C1535      C1536   1.412       .  A
C1536     Br1537   1.933       .  S
C1541      C1542   1.410   1_655  A
C1541      C1546   1.407       .  A
C1541     Br1548   1.930       .  S
C1543      C1544   1.403       .  A
C1543     Br1550   1.931       .  S
C1544     Br1549   1.931       .  S
C1545      C1546   1.409   1_455  A
C1546     Br1547   1.929       .  S
C1551      C1556   1.407       .  A
C1551     Br1558   1.929       .  S
C1552      C1553   1.409       .  A
C1553      C1554   1.407       .  A
C1553     Br1560   1.929       .  S
C1554      C1555   1.409       .  A
C1554     Br1559   1.929       .  S
C1556     Br1557   1.929       .  S
C1561      C1566   1.409       .  A
C1561     Br1568   1.929       .  S
C1562      C1563   1.409       .  A
C1563      C1564   1.406       .  A
C1563     Br1570   1.931       .  S
C1564     Br1569   1.930       .  S
C1565      C1566   1.410   1_455  A
C1566     Br1567   1.929       .  S
C1571      C1576   1.406       .  A
C1571     Br1578   1.929       .  S
C1572      C1573   1.409       .  A
C1573      C1574   1.406       .  A
C1573     Br1580   1.930       .  S
C1574     Br1579   1.930       .  S
C1575      C1576   1.408       .  A
C1576     Br1577   1.929       .  S
C1581      C1582   1.409       .  A
C1581      C1586   1.408       .  A
C1581     Br1588   1.928       .  S
C1583      C1584   1.405       .  A
C1583     Br1590   1.929       .  S
C1584     Br1589   1.928       .  S
C1585      C1586   1.408       .  A
C1586     Br1587   1.928       .  S
C1591      C1592   1.410       .  A
C1591      C1596   1.411       .  A
C1591     Br1598   1.929       .  S
C1593      C1594   1.404       .  A
C1593     Br1600   1.933       .  S
C1594     Br1599   1.930       .  S
C1595      C1596   1.412       .  A
C1596     Br1597   1.930       .  S
C1601      C1602   1.409       .  A
C1601      C1606   1.405       .  A
C1601     Br1608   1.930       .  S
C1603      C1604   1.406       .  A
C1603     Br1610   1.930       .  S
C1604     Br1609   1.931       .  S
C1605      C1606   1.409       .  A
C1606     Br1607   1.930       .  S
C1611      C1616   1.405       .  A
C1611     Br1618   1.929       .  S
C1612      C1613   1.408       .  A
C1613      C1614   1.406       .  A
C1613     Br1620   1.929       .  S
C1614      C1615   1.409       .  A
C1614     Br1619   1.929       .  S
C1616     Br1617   1.929       .  S
C1621      C1622   1.408       .  A
C1621      C1626   1.408       .  A
C1621      C2026   1.475       .  S
C1622      C1893   1.401       .  A
C1622      H1627   1.084       .  S
C1623      C1892   1.401       .  A
C1623      C1624   1.398       .  A
C1623      C1872   1.475       .  S
C1624      C1625   1.396       .  A
C1624      H1628   1.085       .  S
C1625      C1896   1.399       .  A
C1625      C1882   1.473   1_554  S
C1626      C1895   1.399       .  A
C1626      H1629   1.083       .  S
C1630      C1631   1.406       .  A
C1630      C1635   1.410       .  A
C1630      C1767   1.475       .  S
C1631      C1632   1.399       .  A
C1631      H1636   1.084       .  S
C1632      C1633   1.398       .  A
C1632      C1875   1.476       .  S
C1633      C1634   1.399       .  A
C1633      H1637   1.085       .  S
C1634      C1635   1.402       .  A
C1634      C1862   1.480       .  S
C1635      H1638   1.083   1_554  S
C1639      C1640   1.410       .  A
C1639      C1644   1.410       .  A
C1639      C1755   1.480       .  S
C1640      C1641   1.400   1_556  A
C1640      H1645   1.084       .  S
C1641      C1642   1.397       .  A
C1641      C1855   1.477   1_554  S
C1642      C1643   1.400   1_554  A
C1642      H1646   1.085       .  S
C1643      C1644   1.403       .  A
C1643      C1865   1.484       .  S
C1644      H1647   1.083       .  S
C1648      C1649   1.407       .  A
C1648      C1653   1.410       .  A
C1648      C1768   1.476       .  S
C1649      C1650   1.400       .  A
C1649      H1654   1.083       .  S
C1650      C1651   1.398       .  A
C1650      C1885   1.474       .  S
C1651      C1652   1.398       .  A
C1651      H1655   1.085       .  S
C1652      C1653   1.400       .  A
C1652      C1852   1.476       .  S
C1653      H1656   1.084       .  S
C1657      C1658   1.408       .  A
C1657      C1662   1.411       .  A
C1658      C1659   1.400       .  A
C1658      H1663   1.084       .  S
C1659      C1660   1.397       .  A
C1659      C1842   1.474       .  S
C1660      C1661   1.398       .  A
C1660      H1664   1.085       .  S
C1661      C1662   1.403       .  A
C1661      C1832   1.480       .  S
C1662      H1665   1.083       .  S
C1666      C1667   1.410   1_455  A
C1666      C1671   1.411       .  A
C1666      C1741   1.481       .  S
C1667      C1668   1.402       .  A
C1667      H1672   1.083       .  S
C1668      C1669   1.397       .  A
C1668      C1825   1.477       .  S
C1669      C1670   1.398   1_655  A
C1669      H1673   1.085       .  S
C1670      C1671   1.403       .  A
C1670      C1835   1.481       .  S
C1671      H1674   1.083       .  S
C1675      C1676   1.410       .  A
C1675      C1680   1.407       .  A
C1676      C1677   1.401       .  A
C1676      H1681   1.083       .  S
C1677      C1678   1.397       .  A
C1678      C1679   1.398       .  A
C1678      H1682   1.085       .  S
C1679      C1680   1.400       .  A
C1680      H1683   1.083       .  S
C1684      C1685   1.409       .  A
C1684      C1689   1.408   1_655  A
C1684      C1742   1.476       .  S
C1685      C1686   1.400       .  A
C1685      H1690   1.084       .  S
C1686      C1687   1.396       .  A
C1686      C1845   1.474       .  S
C1687      C1688   1.397       .  A
C1687      H1691   1.085       .  S
C1688      C1689   1.400   1_655  A
C1688      C1815   1.475   1_655  S
C1689      H1692   1.084       .  S
C1693      C1694   1.408       .  A
C1693      C1698   1.411       .  A
C1693      C1754   1.479       .  S
C1694      C1695   1.399       .  A
C1694      H1699   1.084       .  S
C1695      C1696   1.397       .  A
C1695      C1802   1.476       .  S
C1696      C1697   1.399       .  A
C1696      H1700   1.085       .  S
C1697      C1698   1.404       .  A
C1697      C1792   1.483       .  S
C1698      H1701   1.083       .  S
C1702      C1703   1.409       .  A
C1702      C1707   1.409       .  A
C1702      C1740   1.480       .  S
C1703      C1704   1.401       .  A
C1703      H1708   1.083       .  S
C1704      C1705   1.399       .  A
C1704      C1795   1.479       .  S
C1705      C1706   1.399       .  A
C1705      H1709   1.085       .  S
C1706      C1707   1.404       .  A
C1706      C1785   1.480       .  S
C1707      H1710   1.084       .  S
C1711      C1712   1.406       .  A
C1711      C1716   1.412       .  A
C1711      C1753   1.476       .  S
C1712      C1713   1.396       .  A
C1712      H1717   1.084       .  S
C1713      C1714   1.396       .  A
C1713      C1782   1.485       .  S
C1714      C1715   1.409       .  A
C1714      H1718   1.083       .  S
C1715      C1716   1.410       .  A
C1715      C1772   1.507       .  S
C1716      H1719   1.079       .  S
C1720      C1721   1.413       .  A
C1720      C1725   1.403       .  A
C1720      C1739   1.480       .  S
C1721      C1722   1.419       .  A
C1721      H1726   1.077       .  S
C1722      C1723   1.408       .  A
C1722      C1775   1.517       .  S
C1723      C1724   1.395       .  A
C1723      H1727   1.080       .  S
C1724      C1725   1.391       .  A
C1724      C1805   1.476       .  S
C1725      H1728   1.084       .  S
O1729      C1739   1.264       .  A
O1730      C1740   1.264       .  A
O1730      V1737   1.895       .  S
O1731      C1741   1.265   1_655  A
O1731      V1737   1.900       .  S
O1732      C1742   1.264       .  A
O1733      C1742   1.264   1_455  A
O1734      C1741   1.266       .  A
O1734      V1738   1.902       .  S
O1735      C1740   1.266       .  A
O1735      V1738   1.905   1_655  S
O1736      C1739   1.266       .  A
V1737      V1738   2.086   1_655  T
O1743      C1753   1.264       .  A
O1743      V1751   1.895   1_554  S
O1744      C1754   1.264       .  A
O1744      V2021   1.899       .  S
O1745      C1755   1.266       .  A
O1746      C1756   1.265       .  A
O1746      V1751   1.900   1_554  S
O1747      C1756   1.263       .  A
O1747      V1752   1.893       .  S
O1748      C1755   1.265   1_554  A
O1749      C1754   1.265       .  A
O1749      V2022   1.899       .  S
O1750      C1753   1.265       .  A
O1750      V1752   1.902       .  S
V1751      O2014   1.899       .  S
V1751      V1752   2.086   1_556  T
V1752      O2019   1.899   1_554  S
C1756      C1891   1.475       .  S
O1757      C1767   1.263       .  A
O1757      V1765   1.894       .  S
O1758      C1768   1.263       .  A
O1759      C1769   1.266       .  A
O1759      V1765   1.901   1_455  S
O1760      C1770   1.266       .  A
O1760      V2035   1.901       .  S
O1761      C1770   1.264       .  A
O1761      V2036   1.896   1_655  S
O1763      C1768   1.266       .  A
O1764      C1767   1.266       .  A
O1764      V1766   1.899   1_654  S
V1765      O2030   1.901   1_554  S
V1765      V1766   2.087   1_654  T
V1766      O2031   1.896   1_455  S
C1771      C1772   1.421       .  A
C1771      C1776   1.421       .  A
C1771     Br1778   1.929       .  S
C1772      C1773   1.409       .  A
C1773      C1774   1.390       .  A
C1773     Br1780   1.938       .  S
C1774      C1775   1.423       .  A
C1774     Br1779   1.937       .  S
C1775      C1776   1.427       .  A
C1776     Br1777   1.931       .  S
C1781      C1782   1.416       .  A
C1781      C1786   1.408       .  A
C1781     Br1788   1.933       .  S
C1782      C1783   1.410   1_565  A
C1783      C1784   1.408       .  A
C1783     Br1790   1.929       .  S
C1784      C1785   1.410   1_545  A
C1784     Br1789   1.929       .  S
C1785      C1786   1.408       .  A
C1786     Br1787   1.932       .  S
C1791      C1792   1.412       .  A
C1791      C1796   1.406       .  A
C1791     Br1798   1.931       .  S
C1792      C1793   1.412       .  A
C1793      C1794   1.409       .  A
C1793     Br1800   1.930   1_565  S
C1794      C1795   1.409       .  A
C1794     Br1799   1.930   1_565  S
C1795      C1796   1.408       .  A
C1796     Br1797   1.931       .  S
C1801      C1802   1.407       .  A
C1801      C1806   1.404       .  A
C1801     Br1808   1.932   1_565  S
C1802      C1803   1.411       .  A
C1803      C1804   1.408       .  A
C1803     Br1810   1.928       .  S
C1804      C1805   1.405       .  A
C1804     Br1809   1.926       .  S
C1805      C1806   1.412       .  A
C1806     Br1807   1.933   1_565  S
C1811      C1812   1.410   1_655  A
C1811      C1816   1.407       .  A
C1811     Br1818   1.930       .  S
C1813      C1814   1.403       .  A
C1813     Br1820   1.931       .  S
C1814     Br1819   1.931       .  S
C1815      C1816   1.409   1_455  A
C1816     Br1817   1.929       .  S
C1821      C1826   1.407       .  A
C1821     Br1828   1.929       .  S
C1822      C1823   1.409       .  A
C1823      C1824   1.407       .  A
C1823     Br1830   1.929       .  S
C1824      C1825   1.409       .  A
C1824     Br1829   1.929       .  S
C1826     Br1827   1.929       .  S
C1831      C1836   1.409       .  A
C1831     Br1838   1.929       .  S
C1832      C1833   1.409       .  A
C1833      C1834   1.406       .  A
C1833     Br1840   1.931       .  S
C1834     Br1839   1.930       .  S
C1835      C1836   1.410   1_455  A
C1836     Br1837   1.929       .  S
C1841      C1846   1.406       .  A
C1841     Br1848   1.929       .  S
C1842      C1843   1.409       .  A
C1843      C1844   1.406       .  A
C1843     Br1850   1.930       .  S
C1844     Br1849   1.930       .  S
C1845      C1846   1.408       .  A
C1846     Br1847   1.929       .  S
C1851      C1852   1.409   1_554  A
C1851      C1856   1.408       .  A
C1851     Br1858   1.928       .  S
C1852      C2123   1.408       .  A
C1853      C2122   1.408       .  A
C1853      C1854   1.405       .  A
C1853     Br1860   1.929       .  S
C1854      C2125   1.409       .  A
C1854     Br1859   1.928       .  S
C1855      C2124   1.409       .  A
C1855      C1856   1.408   1_556  A
C1856     Br1857   1.928       .  S
C1861      C1862   1.410       .  A
C1861      C1866   1.411       .  A
C1861     Br1868   1.929       .  S
C1862      C2133   1.409   1_554  A
C1863      C2132   1.409       .  A
C1863      C1864   1.404       .  A
C1863     Br1870   1.933       .  S
C1864      C2135   1.411       .  A
C1864     Br1869   1.930       .  S
C1865      C2134   1.411       .  A
C1865      C1866   1.412   1_556  A
C1866     Br1867   1.930       .  S
C1871      C1872   1.409       .  A
C1871      C1876   1.405       .  A
C1871     Br1878   1.930       .  S
C1872      C2143   1.408   1_554  A
C1873      C2142   1.408       .  A
C1873      C1874   1.406       .  A
C1873     Br1880   1.930       .  S
C1874      C2145   1.411       .  A
C1874     Br1879   1.931       .  S
C1875      C2144   1.411   1_554  A
C1875      C1876   1.409       .  A
C1876     Br1877   1.930       .  S
C1881      C2152   1.408       .  A
C1881      C1886   1.405       .  A
C1881     Br1888   1.929       .  S
C1882      C2151   1.408       .  A
C1882      C1883   1.408   1_556  A
C1883      C1884   1.406       .  A
C1883     Br1890   1.929       .  S
C1884      C1885   1.409   1_554  A
C1884     Br1889   1.929       .  S
C1885      C2156   1.409       .  A
C1886      C2155   1.409       .  A
C1886     Br1887   1.929       .  S
C1891      C1892   1.408       .  A
C1891      C1896   1.408       .  A
C1892      H1897   1.084       .  S
C1893      C1894   1.398       .  A
C1893      C2142   1.475       .  S
C1894      C1895   1.396       .  A
C1894      H1898   1.085       .  S
C1895      C2152   1.473       .  S
C1896      H1899   1.083   1_554  S
C1900      C1901   1.406       .  A
C1900      C1905   1.410       .  A
C1900      C2037   1.475       .  S
C1901      C1902   1.399       .  A
C1901      H1906   1.084       .  S
C1902      C1903   1.398       .  A
C1902      C2145   1.476       .  S
C1903      C1904   1.399       .  A
C1903      H1907   1.085       .  S
C1904      C1905   1.402       .  A
C1904      C2132   1.480       .  S
C1905      H1908   1.083       .  S
C1909      C1910   1.410       .  A
C1909      C1914   1.410       .  A
C1909      C2025   1.480       .  S
C1910      C1911   1.400       .  A
C1910      H1915   1.084       .  S
C1911      C1912   1.397       .  A
C1911      C2125   1.477       .  S
C1912      C1913   1.400       .  A
C1912      H1916   1.085       .  S
C1913      C1914   1.403       .  A
C1913      C2135   1.484       .  S
C1914      H1917   1.083       .  S
C1918      C1919   1.407       .  A
C1918      C1923   1.410       .  A
C1918      C2038   1.476       .  S
C1919      C1920   1.400       .  A
C1919      H1924   1.083       .  S
C1920      C1921   1.398       .  A
C1920      C2155   1.474       .  S
C1921      C1922   1.398       .  A
C1921      H1925   1.085       .  S
C1922      C1923   1.400       .  A
C1922      C2122   1.476       .  S
C1923      H1926   1.084       .  S
C1927      C1928   1.408       .  A
C1927      C1932   1.411       .  A
C1928      C1929   1.400       .  A
C1928      H1933   1.084       .  S
C1929      C1930   1.397       .  A
C1929      C2112   1.474       .  S
C1930      C1931   1.398       .  A
C1930      H1934   1.085       .  S
C1931      C1932   1.403       .  A
C1931      C2102   1.480       .  S
C1932      H1935   1.083       .  S
C1936      C1937   1.410   1_455  A
C1936      C1941   1.411       .  A
C1936      C2011   1.481       .  S
C1937      C1938   1.402       .  A
C1937      H1942   1.083       .  S
C1938      C1939   1.397       .  A
C1938      C2095   1.477       .  S
C1939      C1940   1.398   1_655  A
C1939      H1943   1.085       .  S
C1940      C1941   1.403       .  A
C1940      C2105   1.481       .  S
C1941      H1944   1.083       .  S
C1945      C1946   1.410       .  A
C1945      C1950   1.407       .  A
C1946      C1947   1.401       .  A
C1946      H1951   1.083       .  S
C1947      C1948   1.397       .  A
C1948      C1949   1.398       .  A
C1948      H1952   1.085       .  S
C1949      C1950   1.400       .  A
C1950      H1953   1.083       .  S
C1954      C1955   1.409       .  A
C1954      C1959   1.408   1_655  A
C1954      C2012   1.476       .  S
C1955      C1956   1.400       .  A
C1955      H1960   1.084       .  S
C1956      C1957   1.396       .  A
C1956      C2115   1.474       .  S
C1957      C1958   1.397       .  A
C1957      H1961   1.085       .  S
C1958      C1959   1.400   1_655  A
C1958      C2085   1.475   1_655  S
C1959      H1962   1.084       .  S
C1963      C1964   1.408       .  A
C1963      C1968   1.411       .  A
C1963      C2024   1.479       .  S
C1964      C1965   1.399       .  A
C1964      H1969   1.084       .  S
C1965      C1966   1.397       .  A
C1965      C2072   1.476       .  S
C1966      C1967   1.399       .  A
C1966      H1970   1.085       .  S
C1967      C1968   1.404       .  A
C1967      C2062   1.483       .  S
C1968      H1971   1.083       .  S
C1972      C1973   1.409       .  A
C1972      C1977   1.409       .  A
C1972      C2010   1.480       .  S
C1973      C1974   1.401       .  A
C1973      H1978   1.083       .  S
C1974      C1975   1.399       .  A
C1974      C2065   1.479       .  S
C1975      C1976   1.399       .  A
C1975      H1979   1.085       .  S
C1976      C1977   1.404       .  A
C1976      C2055   1.480       .  S
C1977      H1980   1.084       .  S
C1981      C1982   1.406       .  A
C1981      C1986   1.412       .  A
C1981      C2023   1.476       .  S
C1982      C1983   1.396       .  A
C1982      H1987   1.084       .  S
C1983      C1984   1.396       .  A
C1983      C2052   1.485       .  S
C1984      C1985   1.409       .  A
C1984      H1988   1.083       .  S
C1985      C1986   1.410       .  A
C1985      C2042   1.507       .  S
C1986      H1989   1.079       .  S
C1990      C1991   1.413       .  A
C1990      C1995   1.403       .  A
C1990      C2009   1.480       .  S
C1991      C1992   1.419       .  A
C1991      H1996   1.077       .  S
C1992      C1993   1.408       .  A
C1992      C2045   1.517       .  S
C1993      C1994   1.395       .  A
C1993      H1997   1.080       .  S
C1994      C1995   1.391       .  A
C1994      C2075   1.476       .  S
C1995      H1998   1.084       .  S
O1999      C2009   1.264       .  A
O2000      C2010   1.264       .  A
O2000      V2007   1.895       .  S
O2001      C2011   1.265   1_655  A
O2001      V2007   1.900       .  S
O2002      C2012   1.264       .  A
O2003      C2012   1.264   1_455  A
O2004      C2011   1.266       .  A
O2004      V2008   1.902       .  S
O2005      C2010   1.266       .  A
O2005      V2008   1.905   1_655  S
O2006      C2009   1.266       .  A
V2007      V2008   2.086   1_655  T
O2013      C2023   1.264       .  A
O2013      V2021   1.895       .  S
O2014      C2024   1.264       .  A
O2015      C2025   1.265       .  A
O2016      C2026   1.265       .  A
O2016      V2021   1.900       .  S
O2017      C2026   1.263       .  A
O2017      V2022   1.893       .  S
O2018      C2025   1.265       .  A
O2019      C2024   1.265       .  A
O2020      C2023   1.265       .  A
O2020      V2022   1.902       .  S
V2021      V2022   2.086       .  T
O2027      C2037   1.263       .  A
O2027      V2035   1.894       .  S
O2028      C2038   1.263       .  A
O2029      C2039   1.266       .  A
O2029      V2035   1.901   1_455  S
O2030      C2040   1.266       .  A
O2031      C2040   1.264       .  A
O2033      C2038   1.266       .  A
O2034      C2037   1.266       .  A
O2034      V2036   1.899   1_655  S
V2035      V2036   2.087   1_655  T
C2041      C2042   1.421       .  A
C2041      C2046   1.421       .  A
C2041     Br2048   1.929       .  S
C2042      C2043   1.409       .  A
C2043      C2044   1.390       .  A
C2043     Br2050   1.938       .  S
C2044      C2045   1.423       .  A
C2044     Br2049   1.937       .  S
C2045      C2046   1.427       .  A
C2046     Br2047   1.931       .  S
C2051      C2052   1.416       .  A
C2051      C2056   1.408       .  A
C2051     Br2058   1.933       .  S
C2052      C2053   1.410   1_565  A
C2053      C2054   1.408       .  A
C2053     Br2060   1.929       .  S
C2054      C2055   1.410   1_545  A
C2054     Br2059   1.929       .  S
C2055      C2056   1.408       .  A
C2056     Br2057   1.932       .  S
C2061      C2062   1.412       .  A
C2061      C2066   1.406       .  A
C2061     Br2068   1.931       .  S
C2062      C2063   1.412       .  A
C2063      C2064   1.409       .  A
C2063     Br2070   1.930   1_565  S
C2064      C2065   1.409       .  A
C2064     Br2069   1.930   1_565  S
C2065      C2066   1.408       .  A
C2066     Br2067   1.931       .  S
C2071      C2072   1.407       .  A
C2071      C2076   1.404       .  A
C2071     Br2078   1.932   1_565  S
C2072      C2073   1.411       .  A
C2073      C2074   1.408       .  A
C2073     Br2080   1.928       .  S
C2074      C2075   1.405       .  A
C2074     Br2079   1.926       .  S
C2075      C2076   1.412       .  A
C2076     Br2077   1.933   1_565  S
C2081      C2082   1.410   1_655  A
C2081      C2086   1.407       .  A
C2081     Br2088   1.930       .  S
C2083      C2084   1.403       .  A
C2083     Br2090   1.931       .  S
C2084     Br2089   1.931       .  S
C2085      C2086   1.409   1_455  A
C2086     Br2087   1.929       .  S
C2091      C2096   1.407       .  A
C2091     Br2098   1.929       .  S
C2092      C2093   1.409       .  A
C2093      C2094   1.407       .  A
C2093     Br2100   1.929       .  S
C2094      C2095   1.409       .  A
C2094     Br2099   1.929       .  S
C2096     Br2097   1.929       .  S
C2101      C2106   1.409       .  A
C2101     Br2108   1.929       .  S
C2102      C2103   1.409       .  A
C2103      C2104   1.406       .  A
C2103     Br2110   1.931       .  S
C2104     Br2109   1.930       .  S
C2105      C2106   1.410   1_455  A
C2106     Br2107   1.929       .  S
C2111      C2116   1.406       .  A
C2111     Br2118   1.929       .  S
C2112      C2113   1.409       .  A
C2113      C2114   1.406       .  A
C2113     Br2120   1.930       .  S
C2114     Br2119   1.930       .  S
C2115      C2116   1.408       .  A
C2116     Br2117   1.929       .  S
C2121      C2122   1.409       .  A
C2121      C2126   1.408       .  A
C2121     Br2128   1.928       .  S
C2123      C2124   1.405       .  A
C2123     Br2130   1.929       .  S
C2124     Br2129   1.928       .  S
C2125      C2126   1.408       .  A
C2126     Br2127   1.928       .  S
C2131      C2132   1.410       .  A
C2131      C2136   1.411       .  A
C2131     Br2138   1.929       .  S
C2133      C2134   1.404       .  A
C2133     Br2140   1.933       .  S
C2134     Br2139   1.930       .  S
C2135      C2136   1.412       .  A
C2136     Br2137   1.930       .  S
C2141      C2142   1.409       .  A
C2141      C2146   1.405       .  A
C2141     Br2148   1.930       .  S
C2143      C2144   1.406       .  A
C2143     Br2150   1.930       .  S
C2144     Br2149   1.931       .  S
C2145      C2146   1.409       .  A
C2146     Br2147   1.930       .  S
C2151      C2156   1.405       .  A
C2151     Br2158   1.929       .  S
C2152      C2153   1.408       .  A
C2153      C2154   1.406       .  A
C2153     Br2160   1.929       .  S
C2154      C2155   1.409       .  A
C2154     Br2159   1.929       .  S
C2156     Br2157   1.929       .  S
