geometry optimzed in LAMMPS
_audit_creation_date              2020-11-30 
_audit_creation_method            'lammps2cif' 
_symmetry_space_group_name_H-M    'P1' 
_symmetry_Int_Tables_number       1 
_symmetry_cell_setting            triclinic 
loop_ 
_symmetry_equiv_pos_as_xyz 
  x,y,z 
_cell_length_a                    48.01873243464965 
_cell_length_b                    48.31629059233839 
_cell_length_c                    31.849130701082483 
_cell_angle_alpha                 90.39001383501378 
_cell_angle_beta                  89.97353550907965 
_cell_angle_gamma                 119.82776358744421 
loop_ 
_atom_site_label 
_atom_site_type_symbol 
_atom_site_fract_x 
_atom_site_fract_y 
_atom_site_fract_z 
_atom_site_charge 
C1          C  0.35545966  0.33860340  0.25688515     0.00810
C2          C  0.33810911  0.35352708  0.25709905     0.00810
C3          C  0.46796257  0.35218226  0.24625144     0.00810
C4          C  0.43562961  0.33690039  0.24744410     0.00810
C5          C  0.43160655  0.04726709  0.24711328     0.00810
C6          C  0.46383541  0.06422220  0.24702750     0.00810
C7          C  0.36729858  0.03294429  0.32176367     0.03370
C8          C  0.39860692  0.05106092  0.30555937    -0.12780
C9          C  0.41327213  0.03507188  0.28722494     0.00870
C10         C  0.39826482  0.00204974  0.29359776    -0.11300
C11         C  0.36464839  0.98566754  0.29070399     0.03360
C12         C  0.34892051  0.00060608  0.30936345    -0.10720
H13         H  0.41072760  0.07688503  0.30596853     0.08960
H14         H  0.41073927  0.98978009  0.28315948     0.06490
H15         H  0.32304699  0.98787702  0.31263085     0.06340
C16         C  0.36487552  0.03029822  0.17737843     0.03370
C17         C  0.39778563  0.04851428  0.18821248    -0.12780
C18         C  0.41277296  0.03324883  0.20746066     0.00870
C19         C  0.39645254  0.99988533  0.20478726    -0.11300
C20         C  0.36328024  0.98500716  0.21177627     0.03360
C21         C  0.34699936  0.99980698  0.19525051    -0.10720
H22         H  0.41091636  0.07412650  0.18408315     0.08960
H23         H  0.40897830  0.98768224  0.21500730     0.06490
H24         H  0.32120143  0.98875266  0.19844046     0.06340
C25         C  0.35135590  0.46636152  0.25126082     0.00810
C26         C  0.33907082  0.43455909  0.25080725     0.00810
C27         C  0.02972257  0.11418277  0.32052078     0.03370
C28         C  0.04743177  0.09914004  0.30814609    -0.12780
C29         C  0.03128881  0.06909771  0.28828130     0.00870
C30         C  0.99782442  0.05244252  0.29217865    -0.11300
C31         C  0.98298554  0.07083688  0.28636800     0.03360
C32         C  0.99882817  0.10198796  0.30280248    -0.10720
H33         H  0.07323058  0.11092422  0.31187645     0.08960
H34         H  0.98500872  0.02775104  0.28201371     0.06490
H35         H  0.98843876  0.11719157  0.29907000     0.06340
C36         C  0.02957851  0.11261711  0.17451330     0.03370
C37         C  0.04755023  0.09825782  0.18812729    -0.12780
C38         C  0.03149623  0.06842000  0.20798708     0.00870
C39         C  0.99802301  0.05137943  0.20342017    -0.11300
C40         C  0.48275979  0.06956126  0.20786668     0.03360
C41         C  0.99835179  0.10024921  0.19079857    -0.10720
H42         H  0.07343473  0.11052053  0.18542223     0.08960
H43         H  0.98535130  0.02691440  0.21401045     0.06490
H44         H  0.48748700  0.11516620  0.19308131     0.06340
C45         C  0.06216631  0.04863530  0.24890390     0.00810
C46         C  0.04464045  0.06340794  0.24837632     0.00810
C47         C  0.11158563  0.03301297  0.32203371     0.03370
C48         C  0.09794161  0.05141818  0.30821899    -0.12780
C49         C  0.06752258  0.03580182  0.28899564     0.00870
C50         C  0.04972283  0.00255508  0.29334244    -0.11300
C51         C  0.06728435  0.48665746  0.28907151     0.03360
C52         C  0.09811535  0.00150824  0.30678359    -0.10720
H53         H  0.11122541  0.07720494  0.31036912     0.08960
H54         H  0.02509058  0.99038028  0.28237977     0.06490
H55         H  0.11213073  0.48958605  0.30624218     0.06340
C56         C  0.37056188  0.28688710  0.32129282     0.03370
C57         C  0.35409214  0.30397890  0.31504326    -0.12780
C58         C  0.37005684  0.33401369  0.29601835     0.00870
C59         C  0.40372735  0.34961121  0.29655059    -0.11300
C60         C  0.41749818  0.33047787  0.28789918     0.03360
C61         C  0.40153288  0.29926629  0.30362486    -0.10720
H62         H  0.32879041  0.29335348  0.32196867     0.08960
H63         H  0.41657475  0.37417324  0.28632570     0.06490
H64         H  0.41227026  0.28426284  0.30033960     0.06340
Fe65       Fe  0.33030196  0.14201067  0.00250366     1.65780
Fe66       Fe  0.25916960  0.14231610  0.99861499     1.73250
Fe67       Fe  0.25942152  0.07184275  0.99874582     1.54410
O68         O  0.28595570  0.06976635  0.44927841    -0.81430
O69         O  0.22446783  0.11187117  0.04140086    -0.79740
O70         O  0.33462851  0.11187726  0.45947593    -0.83940
O71         O  0.33189131  0.11592919  0.05210960    -0.78790
O72         O  0.22613583  0.06859300  0.45532875    -0.80570
O73         O  0.28433990  0.17081629  0.04875016    -0.83310
C74         C  0.31523420  0.08670684  0.06112570     0.97450
C75         C  0.31548252  0.08615259  0.44034396     1.04890
O76         O  0.28296423  0.11878287  0.49999144    -1.12290
O77         O  0.29065623  0.17597736  0.45602274    -0.74730
O78         O  0.33413986  0.17077592  0.45326575    -0.78210
O79         O  0.28928766  0.06801221  0.04203976    -0.78900
C80         C  0.31815296  0.18361512  0.44114900     0.96360
O81         O  0.33276896  0.17540855  0.04581668    -0.76860
O82         O  0.23128991  0.11660782  0.44798652    -0.82050
C83         C  0.21702208  0.08520587  0.05813869     0.98980
C84         C  0.21895448  0.08754960  0.43735824     1.04900
O85         O  0.23024671  0.06906837  0.04784705    -0.77700
C86         C  0.31318173  0.18320298  0.06109330     1.03200
C87         C  0.36720759  0.28599327  0.18303660     0.03370
C88         C  0.34979090  0.29972102  0.20062881    -0.12780
C89         C  0.36639743  0.33098583  0.21663482     0.00870
C90         C  0.39928005  0.34893182  0.20791327    -0.11300
C91         C  0.41603030  0.33208468  0.20863403     0.03390
C92         C  0.40075123  0.30174274  0.18980132    -0.10720
H93         H  0.32392315  0.28573858  0.20359289     0.08960
H94         H  0.41195596  0.37363951  0.21806496     0.06490
H95         H  0.41445598  0.29001716  0.18314981     0.06340
C96         C  0.11452373  0.03333394  0.18092731     0.03370
C97         C  0.09966509  0.05127725  0.19222652    -0.12780
C98         C  0.06866797  0.03557158  0.20944908     0.00870
C99         C  0.05116798  0.00225954  0.20458529    -0.11300
C100        C  0.06852327  0.98623370  0.21024040     0.03360
C101        C  0.09990520  0.00119398  0.19414690    -0.10720
H102        H  0.11241083  0.07700100  0.18960652     0.08960
H103        H  0.02621901  0.99008599  0.21399911     0.06490
H104        H  0.11339826  0.98870325  0.19394095     0.06340
C105        C  0.03735494  0.37216658  0.31850229     0.03370
C106        C  0.00692324  0.35221841  0.29916192    -0.12780
C107        C  0.98807575  0.36521504  0.28508174     0.00870
C108        C  0.99974826  0.39766550  0.29324283    -0.11300
C109        C  0.03307815  0.41709266  0.29097671     0.03360
C110        C  0.05116363  0.40542934  0.31101988    -0.10720
H111        H  0.99837381  0.32707874  0.29392320     0.08960
H112        H  0.98515256  0.40782188  0.28354440     0.06490
H113        H  0.07537951  0.42247178  0.31861553     0.06340
C114        C  0.03452581  0.37040503  0.17871850     0.03370
C115        C  0.00161462  0.35174574  0.18776003    -0.12780
C116        C  0.98567418  0.36622199  0.20640840     0.00870
C117        C  0.00087116  0.39959866  0.20424362    -0.11300
C118        C  0.03416793  0.41595728  0.21096910     0.03360
C119        C  0.05146893  0.40209276  0.19402529    -0.10720
H120        H  0.98904949  0.32618091  0.18269968     0.08960
H121        H  0.98752037  0.41092553  0.21491069     0.06490
H122        H  0.07746816  0.41492007  0.19480489     0.06340
Fe123      Fe  0.07209903  0.26078650  0.50160093     1.65780
Fe124      Fe  0.14263926  0.33152611  0.00281227     1.73250
Fe125      Fe  0.14314450  0.26087581  0.00049217     1.54420
O126        O  0.11273605  0.22658195  0.04238956    -0.81430
O127        O  0.17251672  0.33530732  0.45449279    -0.79740
O128        O  0.06982867  0.23230486  0.05073213    -0.83940
O129        O  0.06917400  0.22732955  0.45826282    -0.78790
O130        O  0.17119583  0.28615018  0.05071873    -0.80570
O131        O  0.11237505  0.33477444  0.45862830    -0.83310
C132        C  0.08814756  0.21992997  0.44002191     0.97450
C133        C  0.08640364  0.21940354  0.06020458     1.04890
O134        O  0.11934157  0.28443926  0.00161529    -1.12290
O135        O  0.11617281  0.33410156  0.05151849    -0.74730
O136        O  0.06793931  0.29079922  0.04491882    -0.78210
O137        O  0.11752779  0.23278300  0.45000962    -0.78900
C138        C  0.08695998  0.31764257  0.06154868     0.96360
O139        O  0.06944771  0.28666028  0.45220336    -0.76860
O140        O  0.17571323  0.33421825  0.04696027    -0.82050
C141        C  0.18539216  0.31901050  0.44376625     0.98980
C142        C  0.18364597  0.31495098  0.06258240     1.04900
O143        O  0.17736850  0.29183604  0.45883274    -0.77700
C144        C  0.08565922  0.31556322  0.44120961     1.03200
C145        C  0.28655388  0.37000252  0.32193159     0.03370
C146        C  0.30170577  0.35203113  0.31328200    -0.12780
C147        C  0.33269822  0.36732654  0.29626307     0.00870
C148        C  0.34976729  0.40077369  0.29860605    -0.11300
C149        C  0.33187745  0.41594462  0.29066329     0.03360
C150        C  0.30059291  0.40147993  0.30691360    -0.10720
H151        H  0.28887202  0.32639432  0.31733336     0.08960
H152        H  0.37469138  0.41288867  0.28909324     0.06490
H153        H  0.28687640  0.41373049  0.30599071     0.06340
C154        C  0.28838006  0.36984738  0.18286981     0.03370
C155        C  0.30001458  0.35099230  0.20148563    -0.12780
C156        C  0.33143225  0.36567573  0.21748983     0.00870
C157        C  0.35108817  0.39837556  0.20995256    -0.11300
C158        C  0.33564373  0.41646581  0.21063346     0.03360
C159        C  0.30631647  0.40327859  0.18909377    -0.10720
H160        H  0.28448552  0.32547240  0.20469671     0.08960
H161        H  0.37570257  0.40974715  0.22089781     0.06490
H162        H  0.29690817  0.41859034  0.18016113     0.06340
C163        C  0.04571340  0.43533095  0.25062887     0.00810
C164        C  0.06154922  0.46747437  0.24992308     0.00810
C165        C  0.20374588  0.32280716  0.37111252    -0.05540
C166        C  0.21140370  0.33268131  0.41302030     0.00390
C167        C  0.24331440  0.35572660  0.42415343    -0.08180
C168        C  0.26662629  0.36739576  0.39270810    -0.05560
C169        C  0.25912892  0.35746757  0.35087046     0.00380
C170        C  0.22719146  0.33490985  0.33947437    -0.08090
C171        C  0.21655023  0.32685027  0.29418876     0.62290
H172        H  0.17894202  0.30621889  0.36310009     0.12980
H173        H  0.29128325  0.38452731  0.40101852     0.12990
C174        C  0.25466428  0.36891038  0.46811746     0.62520
F175        F  0.18766652  0.29852836  0.29090592    -0.22650
F176        F  0.23889289  0.32379932  0.27025734    -0.19970
F177        F  0.21227667  0.35095055  0.27832982    -0.19650
F178        F  0.23044085  0.35737753  0.49740529    -0.19700
F179        F  0.27753335  0.36127892  0.98094475    -0.20030
F180        F  0.26851660  0.40177643  0.46752148    -0.22700
C181        C  0.25771002  0.33216189  0.12621734    -0.05540
C182        C  0.25903573  0.35443497  0.15594649     0.00390
C183        C  0.23423798  0.36245424  0.15598002    -0.08180
C184        C  0.21042643  0.34929902  0.12458860    -0.05560
C185        C  0.20915673  0.32694688  0.09515770     0.00380
C186        C  0.23314487  0.31794232  0.09610366    -0.08090
C187        C  0.23383741  0.29430449  0.06483693     0.62290
H188        H  0.27681453  0.32641371  0.12611790     0.12980
H189        H  0.19198871  0.35602103  0.12369116     0.12990
C190        C  0.23087338  0.38392668  0.18816530     0.62520
F191        F  0.26184626  0.29293182  0.06792609    -0.22650
F192        F  0.23184160  0.30305969  0.52420941    -0.19970
F193        F  0.20846875  0.26406796  0.07240868    -0.19650
F194        F  0.23886127  0.41277027  0.16976164    -0.19700
F195        F  0.24976626  0.38948713  0.22330239    -0.20030
F196        F  0.19933857  0.36980096  0.20158320    -0.22700
C197        C  0.05571323  0.36841355  0.10978841    -0.05540
C198        C  0.05017968  0.35756774  0.15125635     0.00390
C199        C  0.05756010  0.33391557  0.16399995    -0.08180
C200        C  0.06948884  0.32103510  0.13376678    -0.05560
C201        C  0.07431423  0.33152214  0.09204608     0.00380
C202        C  0.06772704  0.35576600  0.07977029    -0.08090
C203        C  0.07271861  0.36765607  0.03483412     0.62290
H204        H  0.04983658  0.38651646  0.10091441     0.12980
H205        H  0.07515556  0.30274790  0.14239247     0.12990
C206        C  0.05360834  0.32304037  0.20928198     0.62520
F207        F  0.06361585  0.39044393  0.02922838    -0.22650
F208        F  0.05462243  0.34242924  0.50785778    -0.19970
F209        F  0.10478258  0.38120837  0.02430484    -0.19650
F210        F  0.02151531  0.30700373  0.22000876    -0.19700
F211        F  0.06983184  0.34923495  0.23547481    -0.20030
F212        F  0.06576832  0.30276717  0.21588553    -0.22700
C213        C  0.03050001  0.32913085  0.36731338    -0.05540
C214        C  0.05225638  0.35752464  0.34647612     0.00390
C215        C  0.08576313  0.37036709  0.35526211    -0.08180
C216        C  0.09502026  0.35592030  0.38655732    -0.05560
C217        C  0.07307346  0.32779809  0.40714727     0.00380
C218        C  0.04011353  0.31323519  0.39566870    -0.08090
C219        C  0.01458694  0.28128757  0.41317133     0.62290
H220        H  0.00509304  0.31939222  0.36213487     0.12980
H221        H  0.12016559  0.36672553  0.39497158     0.12990
C222        C  0.11280615  0.39894479  0.33327738     0.62520
F223        F  0.98423457  0.27208181  0.39767075    -0.22650
F224        F  0.01333640  0.28311569  0.45642111    -0.19970
F225        F  0.02160888  0.25772058  0.40190809    -0.19650
F226        F  0.11865796  0.42672510  0.35361595    -0.19700
F227        F  0.10565605  0.39965350  0.29141421    -0.20030
F228        F  0.14104052  0.39776102  0.33440815    -0.22700
C229        C  0.14006828  0.02962109  0.11619954    -0.05540
C230        C  0.14334702  0.04673033  0.15336673     0.00390
C231        C  0.17171252  0.07664122  0.15978805    -0.08180
C232        C  0.19484132  0.08898077  0.12748767    -0.05560
C233        C  0.19130309  0.07171186  0.09032054     0.00380
C234        C  0.16335956  0.04156022  0.08450097    -0.08090
C235        C  0.15676334  0.02329884  0.04340750     0.62290
H236        H  0.11814399  0.00711028  0.11134783     0.12980
H237        H  0.21636225  0.11196379  0.13182466     0.12990
C238        C  0.17924067  0.09590323  0.20015935     0.62520
F239        F  0.12667678  0.99624122  0.04254139    -0.22650
F240        F  0.17923124  0.01379755  0.03683866    -0.19970
F241        F  0.15812031  0.04291470  0.51123775    -0.19650
F242        F  0.15961028  0.07843552  0.23287842    -0.19700
F243        F  0.17591919  0.12236888  0.19350848    -0.20030
F244        F  0.21056123  0.10605286  0.21228828    -0.22700
C245        C  0.33133886  0.25758535  0.12383806    -0.05540
C246        C  0.35058067  0.25676021  0.15645947     0.00390
C247        C  0.35575969  0.23032212  0.15912370    -0.08180
C248        C  0.34374498  0.20720751  0.12683859    -0.05560
C249        C  0.32469235  0.20824667  0.09413126     0.00380
C250        C  0.31803910  0.23372253  0.09274414    -0.08090
C251        C  0.29832550  0.23677238  0.05758674     0.62290
H252        H  0.32761146  0.27788419  0.12210072     0.12980
H253        H  0.34861938  0.18760876  0.12775984     0.12990
C254        C  0.37286640  0.22483712  0.19544492     0.62520
F255        F  0.29924561  0.26582871  0.05896170    -0.22650
F256        F  0.26659640  0.21303796  0.06107812    -0.19970
F257        F  0.31019279  0.23433789  0.01898509    -0.19650
F258        F  0.37519214  0.24291617  0.23047927    -0.19700
F259        F  0.40328976  0.23196083  0.18291877    -0.20030
F260        F  0.35604699  0.19314081  0.20723888    -0.22700
C261        C  0.37666631  0.25683529  0.37900695    -0.05540
C262        C  0.35672738  0.25748828  0.34726774     0.00390
C263        C  0.32435923  0.23227632  0.34480577    -0.08180
C264        C  0.31252044  0.20921146  0.37673833    -0.05560
C265        C  0.33245945  0.20884376  0.40872024     0.00380
C266        C  0.36542031  0.23277754  0.40941378    -0.08090
C267        C  0.38866283  0.23396155  0.44283102     0.62290
H268        H  0.40131035  0.27611318  0.38050895     0.12980
H269        H  0.28755694  0.19055206  0.37587922     0.12990
C270        C  0.30171560  0.22785202  0.30886439     0.62520
F271        F  0.41818154  0.26164581  0.44068518    -0.22650
F272        F  0.39392285  0.20850712  0.43740687    -0.19970
F273        F  0.37624502  0.23277530  0.48240752    -0.19650
F274        F  0.31767006  0.24543173  0.27394703    -0.19700
F275        F  0.27965939  0.23651498  0.32210407    -0.20030
F276        F  0.28529554  0.19610988  0.29657058    -0.22700
C277        C  0.16661633  0.04430160  0.41362859    -0.05540
C278        C  0.19329839  0.07415344  0.40506200     0.00390
C279        C  0.19389331  0.09013448  0.36758835    -0.08180
C280        C  0.16715773  0.07557586  0.34039019    -0.05560
C281        C  0.13986806  0.04635321  0.35026854     0.00380
C282        C  0.13910674  0.03093560  0.38835845    -0.08090
C283        C  0.10881785  0.00181568  0.40431122     0.62290
H284        H  0.16699365  0.03171864  0.44127602     0.12980
H285        H  0.16709319  0.08728155  0.31165000     0.12990
C286        C  0.22267349  0.12190309  0.35580796     0.62520
F287        F  0.11159536  0.99593252  0.44615136    -0.22650
F288        F  0.10262198  0.47497124  0.38161306    -0.19970
F289        F  0.08284321  0.00668839  0.40092132    -0.19650
F290        F  0.25045852  0.12008741  0.35871337    -0.19700
F291        F  0.22483153  0.14557129  0.38250169    -0.20030
F292        F  0.22032360  0.13047210  0.31512175    -0.22700
C293        C  0.04126830  0.16909468  0.08460409    -0.05540
C294        C  0.07301285  0.19327928  0.09110916     0.00390
C295        C  0.09069196  0.19133231  0.12544104    -0.08180
C296        C  0.07518920  0.16549875  0.15325849    -0.05560
C297        C  0.04344415  0.14082997  0.14633312     0.00380
C298        C  0.02639388  0.14224813  0.11052573    -0.08090
C299        C  0.99328453  0.11521124  0.09773461     0.62290
H300        H  0.02838967  0.17094646  0.05784326     0.12980
H301        H  0.08803812  0.16413335  0.18032449     0.12990
C302        C  0.12565340  0.21623360  0.13265838     0.62520
F303        F  0.48584956  0.11830501  0.05664880    -0.22650
F304        F  0.46998226  0.11530315  0.12309418    -0.19970
F305        F  0.49211999  0.08609515  0.10057718    -0.19650
F306        F  0.12906997  0.24639452  0.13367817    -0.19700
F307        F  0.14418171  0.21453062  0.10060552    -0.20030
F308        F  0.13724974  0.21158632  0.17017574    -0.22700
C309        C  0.04180821  0.17122366  0.41134356    -0.05540
C310        C  0.07443259  0.19414408  0.40739896     0.00390
C311        C  0.09224414  0.19114070  0.37370882    -0.08180
C312        C  0.07614693  0.16600036  0.34447257    -0.05560
C313        C  0.04366972  0.14261196  0.34916047     0.00380
C314        C  0.02625558  0.14500083  0.38392088    -0.08090
C315        C  0.99182389  0.11963818  0.39401355     0.62290
H316        H  0.02849383  0.17343059  0.43733320     0.12980
H317        H  0.08918546  0.16401690  0.31801715     0.12990
C318        C  0.12803362  0.21380185  0.36849591     0.62520
F319        F  0.48304172  0.12330443  0.43420313    -0.22650
F320        F  0.48840274  0.08950426  0.39160099    -0.19970
F321        F  0.47078774  0.12180492  0.36647099    -0.19650
F322        F  0.14457741  0.21011103  0.40153024    -0.19700
F323        F  0.13420896  0.24494988  0.36748246    -0.20030
F324        F  0.13970113  0.20796914  0.33171742    -0.22700
C325        C  0.35445866  0.07407321  0.15806336    -0.05540
C326        C  0.34942556  0.04333672  0.14969473     0.00390
C327        C  0.33271654  0.02694722  0.11263029    -0.08180
C328        C  0.32139299  0.04197700  0.08565162    -0.05560
C329        C  0.32705736  0.07297660  0.09332338     0.00380
C330        C  0.34395438  0.08951828  0.13018713    -0.08090
C331        C  0.35089768  0.12313104  0.14038676     0.62290
H332        H  0.36741405  0.08621698  0.18633168     0.12980
H333        H  0.30863157  0.02976799  0.05730056     0.12990
C334        C  0.32785644  0.99432028  0.10008291     0.62520
F335        F  0.36367765  0.13276664  0.18029204    -0.22650
F336        F  0.32282074  0.12447545  0.13836629    -0.19970
F337        F  0.37289304  0.14439091  0.11213446    -0.19650
F338        F  0.30549547  0.47110658  0.12612876    -0.19700
F339        F  0.35660823  0.99430493  0.10257169    -0.20030
F340        F  0.31662873  0.98607499  0.05928131    -0.22700
C341        C  0.33205122  0.05588698  0.33772413    -0.05540
C342        C  0.35449664  0.04739041  0.35156748     0.00390
C343        C  0.36415430  0.05193368  0.39427715    -0.08180
C344        C  0.35130931  0.06543989  0.42183510    -0.05560
C345        C  0.32867760  0.07367597  0.40829283     0.00380
C346        C  0.31881895  0.06904448  0.36565062    -0.08090
C347        C  0.29518523  0.07878245  0.34973050     0.62290
H348        H  0.32497630  0.05205223  0.30498160     0.12980
H349        H  0.35830171  0.06904595  0.45462142     0.12990
C350        C  0.38724252  0.04163336  0.41093928     0.62520
F351        F  0.29080007  0.07465745  0.30670340    -0.22650
F352        F  0.30652796  0.11064746  0.35899383    -0.19970
F353        F  0.26569842  0.06055322  0.36869376    -0.19650
F354        F  0.41678004  0.05899382  0.39186187    -0.19700
F355        F  0.37523480  0.00952395  0.40267130    -0.20030
F356        F  0.39180412  0.04634234  0.45388418    -0.22700
C357        C  0.35545968  0.33860341  0.75688516     0.00810
C358        C  0.33810917  0.35352712  0.75709909     0.00810
C359        C  0.46796257  0.35218227  0.74625140     0.00810
C360        C  0.43562961  0.33690038  0.74744406     0.00810
C361        C  0.43160651  0.04726706  0.74711327     0.00810
C362        C  0.46383538  0.06422214  0.74702749     0.00810
C363        C  0.36729855  0.03294426  0.82176365     0.03370
C364        C  0.39860689  0.05106089  0.80555935    -0.12780
C365        C  0.41327210  0.03507185  0.78722493     0.00870
C366        C  0.39826478  0.00204971  0.79359775    -0.11300
C367        C  0.36464836  0.98566751  0.79070397     0.03360
C368        C  0.34892047  0.00060606  0.80936343    -0.10720
H369        H  0.41072758  0.07688501  0.80596852     0.08960
H370        H  0.41073923  0.98978006  0.78315946     0.06490
H371        H  0.32304695  0.98787700  0.81263082     0.06340
C372        C  0.36487550  0.03029820  0.67737842     0.03370
C373        C  0.39778560  0.04851425  0.68821247    -0.12780
C374        C  0.41277293  0.03324880  0.70746064     0.00870
C375        C  0.39645250  0.99988530  0.70478724    -0.11300
C376        C  0.36328020  0.98500714  0.71177625     0.03360
C377        C  0.34699933  0.99980696  0.69525050    -0.10720
H378        H  0.41091633  0.07412648  0.68408315     0.08960
H379        H  0.40897826  0.98768221  0.71500728     0.06490
H380        H  0.32120140  0.98875264  0.69844044     0.06340
C381        C  0.35135591  0.46636153  0.75126083     0.00810
C382        C  0.33907082  0.43455910  0.75080726     0.00810
C383        C  0.02972252  0.11418274  0.82052077     0.03370
C384        C  0.04743173  0.09914001  0.80814608    -0.12780
C385        C  0.03128879  0.06909769  0.78828129     0.00870
C386        C  0.99782439  0.05244249  0.79217864    -0.11300
C387        C  0.98298550  0.07083683  0.78636799     0.03360
C388        C  0.99882812  0.10198791  0.80280247    -0.10720
H389        H  0.07323054  0.11092421  0.81187645     0.08960
H390        H  0.98500871  0.02775100  0.78201370     0.06490
H391        H  0.98843870  0.11719152  0.79906998     0.06340
C392        C  0.02957847  0.11261708  0.67451329     0.03370
C393        C  0.04755020  0.09825781  0.68812728    -0.12780
C394        C  0.03149622  0.06841998  0.70798707     0.00870
C395        C  0.99802300  0.05137940  0.70342015    -0.11300
C396        C  0.48275976  0.06956120  0.70786667     0.03360
C397        C  0.99835175  0.10024917  0.69079855    -0.10720
H398        H  0.07343470  0.11052053  0.68542222     0.08960
H399        H  0.98535130  0.02691437  0.71401043     0.06490
H400        H  0.48748693  0.11516613  0.69308130     0.06340
C401        C  0.06216631  0.04863531  0.74890389     0.00810
C402        C  0.04464043  0.06340793  0.74837631     0.00810
C403        C  0.11158563  0.03301297  0.82203371     0.03370
C404        C  0.09794161  0.05141818  0.80821899    -0.12780
C405        C  0.06752258  0.03580183  0.78899564     0.00870
C406        C  0.04972283  0.00255509  0.79334243    -0.11300
C407        C  0.06728436  0.48665748  0.78907150     0.03360
C408        C  0.09811534  0.00150824  0.80678359    -0.10720
H409        H  0.11122541  0.07720495  0.81036912     0.08960
H410        H  0.02509058  0.99038028  0.78237977     0.06490
H411        H  0.11213073  0.48958606  0.80624217     0.06340
C412        C  0.37056190  0.28688709  0.82129281     0.03370
C413        C  0.35409216  0.30397889  0.81504327    -0.12780
C414        C  0.37005686  0.33401369  0.79601835     0.00870
C415        C  0.40372737  0.34961120  0.79655059    -0.11300
C416        C  0.41749819  0.33047786  0.78789916     0.03360
C417        C  0.40153289  0.29926627  0.80362483    -0.10720
H418        H  0.32879043  0.29335348  0.82196868     0.08960
H419        H  0.41657478  0.37417324  0.78632569     0.06490
H420        H  0.41227026  0.28426282  0.80033956     0.06340
Fe421      Fe  0.33030196  0.14201068  0.50250367     1.65780
Fe422      Fe  0.25916960  0.14231610  0.49861500     1.73250
Fe423      Fe  0.25942152  0.07184275  0.49874581     1.54410
O424        O  0.28595570  0.06976634  0.94927841    -0.81430
O425        O  0.22446783  0.11187117  0.54140086    -0.79740
O426        O  0.33462851  0.11187726  0.95947593    -0.83940
O427        O  0.33189130  0.11592920  0.55210960    -0.78790
O428        O  0.22613583  0.06859300  0.95532875    -0.80570
O429        O  0.28433990  0.17081629  0.54875016    -0.83310
C430        C  0.31523420  0.08670684  0.56112570     0.97450
C431        C  0.31548252  0.08615259  0.94034395     1.04890
O432        O  0.28296423  0.11878287  0.99999143    -1.12290
O433        O  0.29065624  0.17597736  0.95602274    -0.74730
O434        O  0.33413986  0.17077592  0.95326575    -0.78210
O435        O  0.28928766  0.06801221  0.54203976    -0.78900
C436        C  0.31815296  0.18361512  0.94114900     0.96360
O437        O  0.33276895  0.17540855  0.54581669    -0.76860
O438        O  0.23128992  0.11660782  0.94798652    -0.82050
C439        C  0.21702207  0.08520587  0.55813869     0.98980
C440        C  0.21895448  0.08754960  0.93735824     1.04900
O441        O  0.23024670  0.06906837  0.54784704    -0.77700
C442        C  0.31318172  0.18320298  0.56109330     1.03200
C443        C  0.36720758  0.28599326  0.68303660     0.03370
C444        C  0.34979090  0.29972102  0.70062882    -0.12780
C445        C  0.36639744  0.33098583  0.71663483     0.00870
C446        C  0.39928005  0.34893182  0.70791326    -0.11300
C447        C  0.41603030  0.33208468  0.70863400     0.03390
C448        C  0.40075122  0.30174274  0.68980130    -0.10720
H449        H  0.32392315  0.28573859  0.70359291     0.08960
H450        H  0.41195597  0.37363950  0.71806495     0.06490
H451        H  0.41445596  0.29001715  0.68314978     0.06340
C452        C  0.11452373  0.03333395  0.68092731     0.03370
C453        C  0.09966509  0.05127725  0.69222652    -0.12780
C454        C  0.06866797  0.03557159  0.70944908     0.00870
C455        C  0.05116798  0.00225954  0.70458528    -0.11300
C456        C  0.06852327  0.98623371  0.71024040     0.03360
C457        C  0.09990520  0.00119398  0.69414690    -0.10720
H458        H  0.11241083  0.07700100  0.68960652     0.08960
H459        H  0.02621901  0.99008599  0.71399910     0.06490
H460        H  0.11339826  0.98870325  0.69394095     0.06340
C461        C  0.03735494  0.37216659  0.81850225     0.03370
C462        C  0.00692325  0.35221843  0.79916186    -0.12780
C463        C  0.98807576  0.36521505  0.78508169     0.00870
C464        C  0.99974826  0.39766551  0.79324280    -0.11300
C465        C  0.03307815  0.41709268  0.79097669     0.03360
C466        C  0.05116362  0.40542936  0.81101987    -0.10720
H467        H  0.99837383  0.32707876  0.79392313     0.08960
H468        H  0.98515255  0.40782189  0.78354436     0.06490
H469        H  0.07537950  0.42247180  0.81861556     0.06340
C470        C  0.03452583  0.37040506  0.67871846     0.03370
C471        C  0.00161463  0.35174577  0.68775998    -0.12780
C472        C  0.98567419  0.36622202  0.70640835     0.00870
C473        C  0.00087116  0.39959869  0.70424359    -0.11300
C474        C  0.03416794  0.41595730  0.71096908     0.03360
C475        C  0.05146894  0.40209278  0.69402527    -0.10720
H476        H  0.98904950  0.32618094  0.68269962     0.08960
H477        H  0.98752038  0.41092555  0.71491066     0.06490
H478        H  0.07746818  0.41492009  0.69480488     0.06340
Fe479      Fe  0.07209901  0.26078650  0.00160091     1.65780
Fe480      Fe  0.14263927  0.33152610  0.50281232     1.73250
Fe481      Fe  0.14314451  0.26087580  0.50049226     1.54420
O482        O  0.11273598  0.22658188  0.54238953    -0.81430
O483        O  0.17251676  0.33530735  0.95449279    -0.79740
O484        O  0.06982869  0.23230492  0.55073224    -0.83940
O485        O  0.06917396  0.22732959  0.95826270    -0.78790
O486        O  0.17119572  0.28615010  0.55071894    -0.80570
O487        O  0.11237508  0.33477444  0.95862819    -0.83310
C488        C  0.08814749  0.21992995  0.94002186     0.97450
C489        C  0.08640360  0.21940353  0.56020462     1.04890
O490        O  0.11934158  0.28443925  0.50161534    -1.12290
O491        O  0.11617286  0.33410154  0.55151861    -0.74730
O492        O  0.06793932  0.29079928  0.54491875    -0.78210
O493        O  0.11752771  0.23278291  0.95000964    -0.78900
C494        C  0.08696000  0.31764259  0.56154870     0.96360
O495        O  0.06944766  0.28666032  0.95220341    -0.76860
O496        O  0.17571328  0.33421823  0.54696028    -0.82050
C497        C  0.18539212  0.31901049  0.94376613     0.98980
C498        C  0.18364593  0.31495093  0.56258253     1.04900
O499        O  0.17736840  0.29183597  0.95883251    -0.77700
C500        C  0.08565921  0.31556324  0.94120958     1.03200
C501        C  0.28655390  0.37000251  0.82193155     0.03370
C502        C  0.30170585  0.35203115  0.81328207    -0.12780
C503        C  0.33269830  0.36732659  0.79626312     0.00870
C504        C  0.34976733  0.40077373  0.79860606    -0.11300
C505        C  0.33187747  0.41594464  0.79066330     0.03360
C506        C  0.30059292  0.40147991  0.80691357    -0.10720
H507        H  0.28887214  0.32639435  0.81733349     0.08960
H508        H  0.37469142  0.41288873  0.78909324     0.06490
H509        H  0.28687637  0.41373045  0.80599064     0.06340
C510        C  0.28838002  0.36984734  0.68286993     0.03370
C511        C  0.30001458  0.35099229  0.70148573    -0.12780
C512        C  0.33143226  0.36567575  0.71748988     0.00870
C513        C  0.35108816  0.39837557  0.70995257    -0.11300
C514        C  0.33564370  0.41646581  0.71063349     0.03360
C515        C  0.30631641  0.40327856  0.68909387    -0.10720
H516        H  0.28448554  0.32547239  0.70469684     0.08960
H517        H  0.37570257  0.40974718  0.72089779     0.06490
H518        H  0.29690809  0.41859028  0.68016125     0.06340
C519        C  0.04571340  0.43533097  0.75062885     0.00810
C520        C  0.06154922  0.46747438  0.74992306     0.00810
C521        C  0.20374594  0.32280684  0.87111249    -0.05540
C522        C  0.21140366  0.33268130  0.91302018     0.00390
C523        C  0.24331428  0.35572687  0.92415323    -0.08180
C524        C  0.26662618  0.36739605  0.89270791    -0.05560
C525        C  0.25912890  0.35746754  0.85087036     0.00380
C526        C  0.22719152  0.33490950  0.83947435    -0.08090
C527        C  0.21655036  0.32684946  0.79418876     0.62290
H528        H  0.17894213  0.30621835  0.86310010     0.12980
H529        H  0.29128308  0.38452783  0.90101827     0.12990
C530        C  0.25466410  0.36891088  0.96811720     0.62520
F531        F  0.18766682  0.29852734  0.79090619    -0.22650
F532        F  0.23889319  0.32379858  0.77025764    -0.19970
F533        F  0.21227647  0.35094938  0.77832926    -0.19650
F534        F  0.23044070  0.35737789  0.99740507    -0.19700
F535        F  0.27753326  0.36127800  0.48094490    -0.20030
F536        F  0.26851605  0.40177689  0.96752099    -0.22700
C537        C  0.25770990  0.33216175  0.62621758    -0.05540
C538        C  0.25903566  0.35443489  0.65594665     0.00390
C539        C  0.23423794  0.36245420  0.65598015    -0.08180
C540        C  0.21042640  0.34929899  0.62458871    -0.05560
C541        C  0.20915666  0.32694680  0.59515787     0.00380
C542        C  0.23314474  0.31794217  0.59610392    -0.08090
C543        C  0.23383719  0.29430421  0.56483734     0.62290
H544        H  0.27681439  0.32641354  0.62611818     0.12980
H545        H  0.19198872  0.35602105  0.62369121     0.12990
C546        C  0.23087335  0.38392666  0.68816543     0.62520
F547        F  0.26184598  0.29293144  0.56792659    -0.22650
F548        F  0.23184179  0.30306007  0.02420907    -0.19970
F549        F  0.20846846  0.26406773  0.57240920    -0.19650
F550        F  0.23886136  0.41277029  0.66976179    -0.19700
F551        F  0.24976616  0.38948702  0.72330258    -0.20030
F552        F  0.19933853  0.36980102  0.70158324    -0.22700
C553        C  0.05571327  0.36841359  0.60978839    -0.05540
C554        C  0.05017971  0.35756777  0.65125633     0.00390
C555        C  0.05756012  0.33391559  0.66399994    -0.08180
C556        C  0.06948885  0.32103513  0.63376678    -0.05560
C557        C  0.07431426  0.33152216  0.59204608     0.00380
C558        C  0.06772708  0.35576603  0.57977028    -0.08090
C559        C  0.07271868  0.36765612  0.53483411     0.62290
H560        H  0.04983662  0.38651650  0.60091438     0.12980
H561        H  0.07515557  0.30274792  0.64239247     0.12990
C562        C  0.05360835  0.32304040  0.70928197     0.62520
F563        F  0.06361596  0.39044400  0.52922837    -0.22650
F564        F  0.05462237  0.34242919  0.00785779    -0.19970
F565        F  0.10478265  0.38120837  0.52430486    -0.19650
F566        F  0.02151531  0.30700376  0.72000874    -0.19700
F567        F  0.06983184  0.34923498  0.73547480    -0.20030
F568        F  0.06576832  0.30276719  0.71588554    -0.22700
C569        C  0.03050001  0.32913087  0.86731332    -0.05540
C570        C  0.05225638  0.35752465  0.84647607     0.00390
C571        C  0.08576312  0.37036710  0.85526206    -0.08180
C572        C  0.09502025  0.35592031  0.88655727    -0.05560
C573        C  0.07307345  0.32779811  0.90714723     0.00380
C574        C  0.04011352  0.31323520  0.89566865    -0.08090
C575        C  0.01458693  0.28128758  0.91317126     0.62290
H576        H  0.00509304  0.31939224  0.86213481     0.12980
H577        H  0.12016558  0.36672555  0.89497153     0.12990
C578        C  0.11280614  0.39894479  0.83327731     0.62520
F579        F  0.98423457  0.27208180  0.89767063    -0.22650
F580        F  0.01333635  0.28311570  0.95642104    -0.19970
F581        F  0.02160889  0.25772060  0.90190806    -0.19650
F582        F  0.11865800  0.42672511  0.85361590    -0.19700
F583        F  0.10565603  0.39965352  0.79141416    -0.20030
F584        F  0.14104050  0.39776099  0.83440803    -0.22700
C585        C  0.14006828  0.02962109  0.61619954    -0.05540
C586        C  0.14334702  0.04673034  0.65336673     0.00390
C587        C  0.17171252  0.07664122  0.65978805    -0.08180
C588        C  0.19484132  0.08898077  0.62748767    -0.05560
C589        C  0.19130309  0.07171186  0.59032054     0.00380
C590        C  0.16335956  0.04156022  0.58450097    -0.08090
C591        C  0.15676334  0.02329884  0.54340750     0.62290
H592        H  0.11814398  0.00711028  0.61134783     0.12980
H593        H  0.21636225  0.11196379  0.63182466     0.12990
C594        C  0.17924067  0.09590323  0.70015935     0.62520
F595        F  0.12667677  0.99624122  0.54254139    -0.22650
F596        F  0.17923124  0.01379755  0.53683866    -0.19970
F597        F  0.15812031  0.04291470  0.01123775    -0.19650
F598        F  0.15961028  0.07843553  0.73287842    -0.19700
F599        F  0.17591919  0.12236888  0.69350848    -0.20030
F600        F  0.21056123  0.10605286  0.71228828    -0.22700
C601        C  0.33133885  0.25758535  0.62383806    -0.05540
C602        C  0.35058065  0.25676021  0.65645948     0.00390
C603        C  0.35575967  0.23032211  0.65912371    -0.08180
C604        C  0.34374496  0.20720751  0.62683860    -0.05560
C605        C  0.32469234  0.20824667  0.59413127     0.00380
C606        C  0.31803910  0.23372254  0.59274413    -0.08090
C607        C  0.29832552  0.23677239  0.55758671     0.62290
H608        H  0.32761146  0.27788420  0.62210071     0.12980
H609        H  0.34861935  0.18760875  0.62775985     0.12990
C610        C  0.37286638  0.22483711  0.69544492     0.62520
F611        F  0.29924565  0.26582873  0.55896166    -0.22650
F612        F  0.26659641  0.21303799  0.56107809    -0.19970
F613        F  0.31019281  0.23433789  0.51898508    -0.19650
F614        F  0.37519214  0.24291617  0.73047927    -0.19700
F615        F  0.40328974  0.23196081  0.68291877    -0.20030
F616        F  0.35604697  0.19314080  0.70723890    -0.22700
C617        C  0.37666632  0.25683528  0.87900693    -0.05540
C618        C  0.35672739  0.25748827  0.84726772     0.00390
C619        C  0.32435924  0.23227632  0.84480576    -0.08180
C620        C  0.31252045  0.20921146  0.87673832    -0.05560
C621        C  0.33245945  0.20884375  0.90872023     0.00380
C622        C  0.36542032  0.23277753  0.90941377    -0.08090
C623        C  0.38866283  0.23396155  0.94283101     0.62290
H624        H  0.40131037  0.27611316  0.88050893     0.12980
H625        H  0.28755695  0.19055206  0.87587921     0.12990
C626        C  0.30171561  0.22785202  0.80886438     0.62520
F627        F  0.41818155  0.26164580  0.94068517    -0.22650
F628        F  0.39392285  0.20850711  0.93740687    -0.19970
F629        F  0.37624503  0.23277529  0.98240751    -0.19650
F630        F  0.31767007  0.24543174  0.77394702    -0.19700
F631        F  0.27965940  0.23651498  0.82210408    -0.20030
F632        F  0.28529555  0.19610989  0.79657057    -0.22700
C633        C  0.16661633  0.04430160  0.91362859    -0.05540
C634        C  0.19329839  0.07415344  0.90506200     0.00390
C635        C  0.19389331  0.09013448  0.86758835    -0.08180
C636        C  0.16715773  0.07557586  0.84039019    -0.05560
C637        C  0.13986806  0.04635321  0.85026854     0.00380
C638        C  0.13910674  0.03093560  0.88835845    -0.08090
C639        C  0.10881784  0.00181568  0.90431122     0.62290
H640        H  0.16699364  0.03171863  0.94127602     0.12980
H641        H  0.16709319  0.08728155  0.81165000     0.12990
C642        C  0.22267349  0.12190309  0.85580796     0.62520
F643        F  0.11159535  0.99593252  0.94615136    -0.22650
F644        F  0.10262198  0.47497124  0.88161304    -0.19970
F645        F  0.08284321  0.00668840  0.90092133    -0.19650
F646        F  0.25045852  0.12008740  0.85871336    -0.19700
F647        F  0.22483154  0.14557129  0.88250169    -0.20030
F648        F  0.22032361  0.13047209  0.81512175    -0.22700
C649        C  0.04126825  0.16909468  0.58460412    -0.05540
C650        C  0.07301280  0.19327927  0.59110919     0.00390
C651        C  0.09069191  0.19133230  0.62544106    -0.08180
C652        C  0.07518915  0.16549873  0.65325851    -0.05560
C653        C  0.04344410  0.14082995  0.64633313     0.00380
C654        C  0.02639383  0.14224812  0.61052574    -0.08090
C655        C  0.99328448  0.11521123  0.59773462     0.62290
H656        H  0.02838962  0.17094647  0.55784329     0.12980
H657        H  0.08803807  0.16413333  0.68032450     0.12990
C658        C  0.12565335  0.21623358  0.63265840     0.62520
F659        F  0.48584949  0.11830500  0.55664880    -0.22650
F660        F  0.46998219  0.11530311  0.62309419    -0.19970
F661        F  0.49211993  0.08609513  0.60057717    -0.19650
F662        F  0.12906994  0.24639450  0.63367818    -0.19700
F663        F  0.14418165  0.21453059  0.60060552    -0.20030
F664        F  0.13724970  0.21158629  0.67017575    -0.22700
C665        C  0.04180813  0.17122365  0.91134351    -0.05540
C666        C  0.07443252  0.19414407  0.90739891     0.00390
C667        C  0.09224407  0.19114068  0.87370878    -0.08180
C668        C  0.07614687  0.16600033  0.84447255    -0.05560
C669        C  0.04366966  0.14261193  0.84916044     0.00380
C670        C  0.02625551  0.14500081  0.88392084    -0.08090
C671        C  0.99182382  0.11963816  0.89401352     0.62290
H672        H  0.02849376  0.17343058  0.93733315     0.12980
H673        H  0.08918540  0.16401687  0.81801713     0.12990
C674        C  0.12803355  0.21380183  0.86849588     0.62520
F675        F  0.48304165  0.12330440  0.93420310    -0.22650
F676        F  0.48840268  0.08950423  0.89160099    -0.19970
F677        F  0.47078767  0.12180486  0.86647097    -0.19650
F678        F  0.14457734  0.21011101  0.90153019    -0.19700
F679        F  0.13420888  0.24494985  0.86748245    -0.20030
F680        F  0.13970106  0.20796913  0.83171737    -0.22700
C681        C  0.35445864  0.07407320  0.65806337    -0.05540
C682        C  0.34942554  0.04333671  0.64969472     0.00390
C683        C  0.33271652  0.02694721  0.61263028    -0.08180
C684        C  0.32139299  0.04197700  0.58565161    -0.05560
C685        C  0.32705735  0.07297660  0.59332338     0.00380
C686        C  0.34395437  0.08951828  0.63018713    -0.08090
C687        C  0.35089767  0.12313104  0.64038677     0.62290
H688        H  0.36741403  0.08621696  0.68633169     0.12980
H689        H  0.30863157  0.02976799  0.55730055     0.12990
C690        C  0.32785643  0.99432028  0.60008290     0.62520
F691        F  0.36367763  0.13276663  0.68029205    -0.22650
F692        F  0.32282073  0.12447545  0.63836630    -0.19970
F693        F  0.37289304  0.14439090  0.61213447    -0.19650
F694        F  0.30549547  0.47110658  0.62612877    -0.19700
F695        F  0.35660822  0.99430493  0.60257168    -0.20030
F696        F  0.31662872  0.98607499  0.55928129    -0.22700
C697        C  0.33205120  0.05588697  0.83772412    -0.05540
C698        C  0.35449662  0.04739039  0.85156746     0.00390
C699        C  0.36415428  0.05193366  0.89427714    -0.08180
C700        C  0.35130930  0.06543987  0.92183509    -0.05560
C701        C  0.32867759  0.07367596  0.90829282     0.00380
C702        C  0.31881894  0.06904448  0.86565062    -0.08090
C703        C  0.29518522  0.07878245  0.84973050     0.62290
H704        H  0.32497629  0.05205222  0.80498160     0.12980
H705        H  0.35830170  0.06904593  0.95462141     0.12990
C706        C  0.38724250  0.04163333  0.91093926     0.62520
F707        F  0.29080006  0.07465745  0.80670340    -0.22650
F708        F  0.30652796  0.11064746  0.85899383    -0.19970
F709        F  0.26569841  0.06055323  0.86869377    -0.19650
F710        F  0.41678001  0.05899379  0.89186185    -0.19700
F711        F  0.37523476  0.00952391  0.90267128    -0.20030
F712        F  0.39180409  0.04634231  0.95388416    -0.22700
C713        C  0.35546418  0.83860008  0.25686868     0.00810
C714        C  0.33811302  0.85352299  0.25708839     0.00810
C715        C  0.46796137  0.85218960  0.24622330     0.00810
C716        C  0.43562830  0.83689101  0.24740620     0.00810
C717        C  0.43156793  0.54729299  0.24712592     0.00810
C718        C  0.46379735  0.56425171  0.24704348     0.00810
C719        C  0.36724476  0.53292678  0.32177993     0.03370
C720        C  0.39855130  0.55106011  0.30557471    -0.12780
C721        C  0.41323241  0.53508744  0.28723572     0.00870
C722        C  0.39824211  0.50206590  0.29360419    -0.11300
C723        C  0.36462574  0.48566752  0.29070951     0.03360
C724        C  0.34888250  0.50058843  0.30937438    -0.10720
H725        H  0.41065888  0.57688363  0.30598877     0.08960
H726        H  0.41072882  0.48980905  0.28316365     0.06490
H727        H  0.32300902  0.48784569  0.31264268     0.06340
C728        C  0.36482762  0.53029352  0.17739099     0.03370
C729        C  0.39773670  0.54852272  0.18822624    -0.12780
C730        C  0.41273780  0.53326987  0.20747167     0.00870
C731        C  0.39643302  0.49990647  0.20479393    -0.11300
C732        C  0.36325931  0.48501121  0.21178065     0.03360
C733        C  0.34696493  0.49979853  0.19525799    -0.10720
H734        H  0.41085629  0.57413546  0.18410097     0.08960
H735        H  0.40896999  0.48771409  0.21501201     0.06490
H736        H  0.32116633  0.48873292  0.19845103     0.06340
C737        C  0.35137052  0.96636081  0.25125744     0.00810
C738        C  0.33908101  0.93455784  0.25080432     0.00810
C739        C  0.02968376  0.61418931  0.32055245     0.03370
C740        C  0.04738397  0.59913499  0.30818903    -0.12780
C741        C  0.03123634  0.56909648  0.28831596     0.00870
C742        C  0.99777073  0.55245194  0.29220000    -0.11300
C743        C  0.98294385  0.57085748  0.28638626     0.03360
C744        C  0.99879381  0.60200677  0.30282555    -0.10720
H745        H  0.07318158  0.61091027  0.31192933     0.08960
H746        H  0.98494922  0.52776189  0.28202970     0.06490
H747        H  0.98841367  0.61721836  0.29909106     0.06340
C748        C  0.02955449  0.61264046  0.17453801     0.03370
C749        C  0.04751840  0.59827557  0.18816261    -0.12780
C750        C  0.03145499  0.56843739  0.20802040     0.00870
C751        C  0.99798269  0.55140298  0.20344284    -0.11300
C752        C  0.48272530  0.56959035  0.20788499     0.03360
C753        C  0.99832588  0.60027899  0.19081677    -0.10720
H754        H  0.07340317  0.61053301  0.18546424     0.08960
H755        H  0.98530458  0.52693688  0.21402840     0.06490
H756        H  0.48746501  0.61519984  0.19309101     0.06340
C757        C  0.06212708  0.54865171  0.24892959     0.00810
C758        C  0.04459170  0.56341437  0.24840938     0.00810
C759        C  0.11153365  0.53299144  0.32202095     0.03370
C760        C  0.09788474  0.55140099  0.30824398    -0.12780
C761        C  0.06747084  0.53579441  0.28900751     0.00870
C762        C  0.04968018  0.50254329  0.29330468    -0.11300
C763        C  0.06731702  0.98665540  0.28915788     0.03360
C764        C  0.09807814  0.50150038  0.30671752    -0.10720
H765        H  0.11116367  0.57718635  0.31043151     0.08960
H766        H  0.02504729  0.49037073  0.28234563     0.06490
H767        H  0.11216685  0.98959280  0.30631454     0.06340
C768        C  0.37056287  0.78687293  0.32125732     0.03370
C769        C  0.35409551  0.80396864  0.31501920    -0.12780
C770        C  0.37006117  0.83400528  0.29599836     0.00870
C771        C  0.40373104  0.84959872  0.29652472    -0.11300
C772        C  0.41749585  0.83046204  0.28786063     0.03360
C773        C  0.40153041  0.79924945  0.30358126    -0.10720
H774        H  0.32879480  0.79334500  0.32194979     0.08960
H775        H  0.41658004  0.87416158  0.28630318     0.06490
H776        H  0.41226500  0.78424409  0.30028722     0.06340
Fe777      Fe  0.33025121  0.64198410  0.00250151     1.65780
Fe778      Fe  0.25914215  0.64233412  0.99854911     1.73250
Fe779      Fe  0.25934057  0.57183185  0.99878760     1.54410
O780        O  0.28587953  0.56970959  0.44934953    -0.81430
O781        O  0.22442280  0.61193054  0.04132562    -0.79740
O782        O  0.33455446  0.61183901  0.45947530    -0.83940
O783        O  0.33183096  0.61589686  0.05210836    -0.78790
O784        O  0.22606764  0.56857848  0.45534727    -0.80570
O785        O  0.28431972  0.67085049  0.04867222    -0.83310
C786        C  0.31515026  0.58668485  0.06116541     0.97450
C787        C  0.31540196  0.58609682  0.44038329     1.04890
O788        O  0.28291131  0.61877543  0.49998295    -1.12290
O789        O  0.29063830  0.67596379  0.45594650    -0.74730
O790        O  0.33412269  0.67076433  0.45326174    -0.78210
O791        O  0.28918363  0.56799817  0.04211564    -0.78900
C792        C  0.31814168  0.68359944  0.44110544     0.96360
O793        O  0.33272633  0.67538323  0.04581567    -0.76860
O794        O  0.23125685  0.61660376  0.44793642    -0.82050
C795        C  0.21694731  0.58526901  0.05808973     0.98980
C796        C  0.21889908  0.58753468  0.43734970     1.04900
O797        O  0.23015513  0.56910240  0.04785879    -0.77700
C798        C  0.31315020  0.68320664  0.06105520     1.03200
C799        C  0.36719925  0.78598986  0.18300851     0.03370
C800        C  0.34978767  0.79972033  0.20060705    -0.12780
C801        C  0.36639860  0.83098389  0.21661450     0.00870
C802        C  0.39928069  0.84892803  0.20788635    -0.11300
C803        C  0.41602939  0.83207882  0.20859735     0.03390
C804        C  0.40074374  0.80173547  0.18976658    -0.10720
H805        H  0.32391999  0.78574045  0.20357494     0.08960
H806        H  0.41195936  0.87363508  0.21804062     0.06490
H807        H  0.41444381  0.79000533  0.18311161     0.06340
C808        C  0.11443868  0.53333720  0.18082251     0.03370
C809        C  0.09963379  0.55130424  0.19224916    -0.12780
C810        C  0.06863487  0.53560345  0.20946779     0.00870
C811        C  0.05110843  0.50229600  0.20455248    -0.11300
C812        C  0.06844376  0.48624264  0.21013461     0.03360
C813        C  0.09980274  0.50118040  0.19396507    -0.10720
H814        H  0.11242414  0.57703502  0.18972099     0.08960
H815        H  0.02616265  0.49013043  0.21397895     0.06490
H816        H  0.11327098  0.48866488  0.19365942     0.06340
C817        C  0.03731142  0.87213003  0.31851815     0.03370
C818        C  0.00690146  0.85219620  0.29912993    -0.12780
C819        C  0.98806112  0.86520272  0.28506492     0.00870
C820        C  0.99972102  0.89764672  0.29327482    -0.11300
C821        C  0.03305518  0.91708641  0.29108850     0.03360
C822        C  0.05110690  0.90540457  0.31117688    -0.10720
H823        H  0.99836001  0.82706109  0.29386722     0.08960
H824        H  0.98513315  0.90780913  0.28356686     0.06490
H825        H  0.07531710  0.92245372  0.31898645     0.06340
C826        C  0.03454800  0.87041034  0.17876631     0.03370
C827        C  0.00162372  0.85176554  0.18774279    -0.12780
C828        C  0.98568690  0.86624513  0.20639420     0.00870
C829        C  0.00091314  0.89962556  0.20428202    -0.11300
C830        C  0.03420268  0.91595157  0.21107120     0.03360
C831        C  0.05149991  0.90207924  0.19413883    -0.10720
H832        H  0.98904533  0.82620527  0.18263731     0.08960
H833        H  0.98756901  0.91096168  0.21493954     0.06490
H834        H  0.07749843  0.91488635  0.19496588     0.06340
Fe835      Fe  0.07210470  0.76081546  0.50161096     1.65780
Fe836      Fe  0.14265404  0.83155316  0.00279283     1.73250
Fe837      Fe  0.14314256  0.76088934  0.00049253     1.54420
O838        O  0.11274351  0.72660726  0.04240934    -0.81430
O839        O  0.17253903  0.83532315  0.45449032    -0.79740
O840        O  0.06982479  0.73231298  0.05072195    -0.83940
O841        O  0.06916991  0.72736848  0.45825016    -0.78790
O842        O  0.17120680  0.78617402  0.05070269    -0.80570
O843        O  0.11240418  0.83480997  0.45858780    -0.83310
C844        C  0.08813465  0.71994930  0.44002587     0.97450
C845        C  0.08640365  0.71941904  0.06020910     1.04890
O846        O  0.11934752  0.78446258  0.00161218    -1.12290
O847        O  0.11618291  0.83414631  0.05148046    -0.74730
O848        O  0.06795994  0.79081909  0.04495493    -0.78210
O849        O  0.11751082  0.73278279  0.45002762    -0.78900
C850        C  0.08697949  0.81767639  0.06155028     0.96360
O851        O  0.06945205  0.78670629  0.45223739    -0.76860
O852        O  0.17571582  0.83423952  0.04695939    -0.82050
C853        C  0.18539896  0.81901385  0.44375638     0.98980
C854        C  0.18365214  0.81497242  0.06257448     1.04900
O855        O  0.17735958  0.79183340  0.45881436    -0.77700
C856        C  0.08567042  0.81560046  0.44120890     1.03200
C857        C  0.28656323  0.87000056  0.32192611     0.03370
C858        C  0.30171374  0.85202815  0.31327518    -0.12780
C859        C  0.33270564  0.86732236  0.29625494     0.00870
C860        C  0.34977642  0.90076959  0.29859901    -0.11300
C861        C  0.33188801  0.91594267  0.29065964     0.03360
C862        C  0.30060372  0.90147868  0.30691049    -0.10720
H863        H  0.28887903  0.82639128  0.31732582     0.08960
H864        H  0.37470011  0.91288348  0.28908434     0.06490
H865        H  0.28688824  0.91373036  0.30598940     0.06340
C866        C  0.28838284  0.86985011  0.18286846     0.03370
C867        C  0.30001526  0.85099232  0.20148187    -0.12780
C868        C  0.33143411  0.86567293  0.21748211     0.00870
C869        C  0.35109228  0.89837219  0.20994468    -0.11300
C870        C  0.33565060  0.91646478  0.21062949     0.03360
C871        C  0.30632299  0.90328102  0.18909178    -0.10720
H872        H  0.28448431  0.82547273  0.20469311     0.08960
H873        H  0.37570717  0.90974167  0.22088777     0.06490
H874        H  0.29691769  0.91859542  0.18015974     0.06340
C875        C  0.04573118  0.93531841  0.25073980     0.00810
C876        C  0.06159025  0.96746195  0.25002822     0.00810
C877        C  0.20375559  0.82280141  0.37110577    -0.05540
C878        C  0.21141220  0.83267832  0.41301275     0.00390
C879        C  0.24332228  0.85572562  0.42414609    -0.08180
C880        C  0.26663462  0.86739460  0.39270154    -0.05560
C881        C  0.25913798  0.85746551  0.35086425     0.00380
C882        C  0.22720120  0.83490607  0.33946786    -0.08090
C883        C  0.21656100  0.82684826  0.29418174     0.62290
H884        H  0.17895207  0.80621196  0.36309330     0.12980
H885        H  0.29129121  0.88452724  0.40101212     0.12990
C886        C  0.25467142  0.86891157  0.46810962     0.62520
F887        F  0.18767237  0.79853167  0.29089674    -0.22650
F888        F  0.23890020  0.82378907  0.27025368    -0.19970
F889        F  0.21229766  0.85095418  0.27832076    -0.19650
F890        F  0.23044820  0.85737821  0.49739769    -0.19700
F891        F  0.27754219  0.86128247  0.98093879    -0.20030
F892        F  0.26852136  0.90177734  0.46751130    -0.22700
C893        C  0.25770932  0.83216747  0.12621579    -0.05540
C894        C  0.25903828  0.85444152  0.15594536     0.00390
C895        C  0.23424476  0.86246675  0.15597749    -0.08180
C896        C  0.21043487  0.84931707  0.12458339    -0.05560
C897        C  0.20916228  0.82696451  0.09515103     0.00380
C898        C  0.23314549  0.81795288  0.09609977    -0.08090
C899        C  0.23383437  0.79431170  0.06483520     0.62290
H900        H  0.27681050  0.82641452  0.12611790     0.12980
H901        H  0.19200045  0.85604351  0.12368553     0.12990
C902        C  0.23088218  0.88393945  0.18816430     0.62520
F903        F  0.26184001  0.79293351  0.06792754    -0.22650
F904        F  0.23184242  0.80306706  0.52420621    -0.19970
F905        F  0.20846215  0.76407720  0.07240739    -0.19650
F906        F  0.23886972  0.91278314  0.16976125    -0.19700
F907        F  0.24977654  0.88950001  0.22329978    -0.20030
F908        F  0.19934795  0.86981393  0.20158449    -0.22700
C909        C  0.05575514  0.86845212  0.10983713    -0.05540
C910        C  0.05020543  0.85758259  0.15129422     0.00390
C911        C  0.05756403  0.83391029  0.16401251    -0.08180
C912        C  0.06949688  0.82104158  0.13376931    -0.05560
C913        C  0.07434140  0.83155453  0.09206046     0.00380
C914        C  0.06776548  0.85581024  0.07980572    -0.08090
C915        C  0.07275542  0.86771185  0.03487509     0.62290
H916        H  0.04988982  0.88656623  0.10098051     0.12980
H917        H  0.07514901  0.80274096  0.14237687     0.12990
C918        C  0.05357893  0.82299670  0.20927797     0.62520
F919        F  0.06365107  0.89050011  0.02928680    -0.22650
F920        F  0.05465825  0.84249133  0.50789011    -0.19970
F921        F  0.10481869  0.88126757  0.02434110    -0.19650
F922        F  0.02147969  0.80697492  0.21997417    -0.19700
F923        F  0.06980454  0.84916693  0.23550565    -0.20030
F924        F  0.06571128  0.80269817  0.21586180    -0.22700
C925        C  0.03045835  0.82911351  0.36734198    -0.05540
C926        C  0.05220586  0.85747151  0.34644324     0.00390
C927        C  0.08571502  0.87030045  0.35514585    -0.08180
C928        C  0.09500008  0.85591496  0.38649152    -0.05560
C929        C  0.07306439  0.82781941  0.40715161     0.00380
C930        C  0.04009126  0.81324818  0.39571896    -0.08090
C931        C  0.01457103  0.78132396  0.41328798     0.62290
H932        H  0.00504790  0.81938176  0.36218207     0.12980
H933        H  0.12015985  0.86672750  0.39484055     0.12990
C934        C  0.11273571  0.89877093  0.33296652     0.62520
F935        F  0.98420670  0.77211914  0.39783360    -0.22650
F936        F  0.01336461  0.78319498  0.45653751    -0.19970
F937        F  0.02156457  0.75773466  0.40204072    -0.19650
F938        F  0.11888788  0.92662151  0.35337643    -0.19700
F939        F  0.10538890  0.89953846  0.29120102    -0.20030
F940        F  0.14084528  0.89734462  0.33373515    -0.22700
C941        C  0.13980750  0.52981872  0.11583125    -0.05540
C942        C  0.14322773  0.54674261  0.15321669     0.00390
C943        C  0.17170390  0.57652328  0.15983786    -0.08180
C944        C  0.19486233  0.58889620  0.12757657    -0.05560
C945        C  0.19119281  0.57180067  0.09020772     0.00380
C946        C  0.16308780  0.54182612  0.08412165    -0.08090
C947        C  0.15632753  0.52387665  0.04275146     0.62290
H948        H  0.11778228  0.50742674  0.11082446     0.12980
H949        H  0.21649091  0.61176642  0.13208102     0.12990
C950        C  0.17928547  0.59561777  0.20036020     0.62520
F951        F  0.12616925  0.49692036  0.04174869    -0.22650
F952        F  0.17866339  0.51427490  0.03567782    -0.19970
F953        F  0.15773453  0.54380209  0.51096680    -0.19650
F954        F  0.15960084  0.57805092  0.23298251    -0.19700
F955        F  0.17608558  0.62218187  0.19397592    -0.20030
F956        F  0.21057675  0.60560431  0.21246344    -0.22700
C957        C  0.33132791  0.75759269  0.12380901    -0.05540
C958        C  0.35056517  0.75675868  0.15642990     0.00390
C959        C  0.35573111  0.73031277  0.15909415    -0.08180
C960        C  0.34370867  0.70719863  0.12680866    -0.05560
C961        C  0.32466254  0.70824755  0.09409867     0.00380
C962        C  0.31802174  0.73373190  0.09271315    -0.08090
C963        C  0.29831506  0.73679348  0.05755630     0.62290
H964        H  0.32760968  0.77789726  0.12207356     0.12980
H965        H  0.34857343  0.68759357  0.12773061     0.12990
C966        C  0.37283258  0.72481996  0.19541497     0.62520
F967        F  0.29924974  0.76585652  0.05893312    -0.22650
F968        F  0.26658177  0.71306888  0.06104726    -0.19970
F969        F  0.31017867  0.73435425  0.01895405    -0.19650
F970        F  0.37516944  0.74290482  0.23044766    -0.19700
F971        F  0.40325120  0.73192934  0.18288660    -0.20030
F972        F  0.35600164  0.69312491  0.20721254    -0.22700
C973        C  0.37666670  0.75681526  0.37896494    -0.05540
C974        C  0.35672892  0.75747155  0.34722597     0.00390
C975        C  0.32436155  0.73225973  0.34475815    -0.08180
C976        C  0.31252216  0.70919020  0.37668379    -0.05560
C977        C  0.33245820  0.70882096  0.40866909     0.00380
C978        C  0.36541820  0.73275572  0.40937011    -0.08090
C979        C  0.38865507  0.73394071  0.44279639     0.62290
H980        H  0.40131039  0.77609367  0.38047082     0.12980
H981        H  0.28755836  0.69053136  0.37582090     0.12990
C982        C  0.30171731  0.72784395  0.30882143     0.62520
F983        F  0.41817606  0.76162216  0.44065052    -0.22650
F984        F  0.39391063  0.70848235  0.43738602    -0.19970
F985        F  0.37623337  0.73276188  0.48236831    -0.19650
F986        F  0.31767178  0.74542751  0.27390667    -0.19700
F987        F  0.27966539  0.73650986  0.32207079    -0.20030
F988        F  0.28529213  0.69610358  0.29652007    -0.22700
C989        C  0.16652555  0.54430461  0.41368110    -0.05540
C990        C  0.19323521  0.57412935  0.40506640     0.00390
C991        C  0.19385207  0.59008354  0.36755742    -0.08180
C992        C  0.16711634  0.57552635  0.34036255    -0.05560
C993        C  0.13981141  0.54632432  0.35026355     0.00380
C994        C  0.13902402  0.53093352  0.38838818    -0.08090
C995        C  0.10870943  0.50184583  0.40434408     0.62290
H996        H  0.16687440  0.53175838  0.44139137     0.12980
H997        H  0.16706209  0.58722125  0.31160833     0.12990
C998        C  0.22265214  0.62182773  0.35574215     0.62520
F999        F  0.11148568  0.49592789  0.44616876    -0.22650
F1000       F  0.10280320  0.97494966  0.38161196    -0.19970
F1001       F  0.08278015  0.50679358  0.40099510    -0.19650
F1002       F  0.25042020  0.61998473  0.35868413    -0.19700
F1003       F  0.22483251  0.64553011  0.38238749    -0.20030
F1004       F  0.22031601  0.63036701  0.31503426    -0.22700
C1005       C  0.04126381  0.66911023  0.08460836    -0.05540
C1006       C  0.07300944  0.69329325  0.09111431     0.00390
C1007       C  0.09068494  0.69134389  0.12544951    -0.08180
C1008       C  0.07517606  0.66551423  0.15327262    -0.05560
C1009       C  0.04342865  0.64084949  0.14634922     0.00380
C1010       C  0.02638436  0.64226602  0.11053426    -0.08090
C1011       C  0.99327650  0.61522851  0.09773944     0.62290
H1012       H  0.02838788  0.67096115  0.05784378     0.12980
H1013       H  0.08802188  0.66414879  0.18034207     0.12990
C1014       C  0.12564910  0.71623808  0.13266458     0.62520
F1015       F  0.48584785  0.61831819  0.05664890    -0.22650
F1016       F  0.46997095  0.61532358  0.12308879    -0.19970
F1017       F  0.49211077  0.58611236  0.10059343    -0.19650
F1018       F  0.12907557  0.74640303  0.13368025    -0.19700
F1019       F  0.14417303  0.71452602  0.10061257    -0.20030
F1020       F  0.13724273  0.71158870  0.17018286    -0.22700
C1021       C  0.04178623  0.67124712  0.41135781    -0.05540
C1022       C  0.07441258  0.69416047  0.40740886     0.00390
C1023       C  0.09222048  0.69114564  0.37372351    -0.08180
C1024       C  0.07611756  0.66600237  0.34449348    -0.05560
C1025       C  0.04363830  0.64262125  0.34918560     0.00380
C1026       C  0.02622795  0.64502017  0.38394287    -0.08090
C1027       C  0.99179498  0.61966314  0.39404061     0.62290
H1028       H  0.02847539  0.67346245  0.43734554     0.12980
H1029       H  0.08915302  0.66401024  0.31804053     0.12990
C1030       C  0.12801188  0.71379726  0.36851006     0.62520
F1031       F  0.48301653  0.62333780  0.43422862    -0.22650
F1032       F  0.48836821  0.58952664  0.39163654    -0.19970
F1033       F  0.47075967  0.62182913  0.36649577    -0.19650
F1034       F  0.14455098  0.71010143  0.40154612    -0.19700
F1035       F  0.13419812  0.74494881  0.36749301    -0.20030
F1036       F  0.13967497  0.70795674  0.33173315    -0.22700
C1037       C  0.35439166  0.57405921  0.15808906    -0.05540
C1038       C  0.34936364  0.54332455  0.14971760     0.00390
C1039       C  0.33264691  0.52693174  0.11265817    -0.08180
C1040       C  0.32130948  0.54195550  0.08568985    -0.05560
C1041       C  0.32697316  0.57295454  0.09336234     0.00380
C1042       C  0.34387911  0.58950026  0.13021820    -0.08090
C1043       C  0.35082468  0.62311430  0.14041234     0.62290
H1044       H  0.36735199  0.58620624  0.18635309     0.12980
H1045       H  0.30854139  0.52974457  0.05734311     0.12990
C1046       C  0.32779562  0.49430960  0.10010221     0.62520
F1047       F  0.36361014  0.63275412  0.18031435    -0.22650
F1048       F  0.32274814  0.62445959  0.13839564    -0.19970
F1049       F  0.37281636  0.64437005  0.11215332    -0.19650
F1050       F  0.30554769  0.97112289  0.12610770    -0.19700
F1051       F  0.35655290  0.49430414  0.10257798    -0.20030
F1052       F  0.31656242  0.48606473  0.05930272    -0.22700
C1053       C  0.33197875  0.55584627  0.33775531    -0.05540
C1054       C  0.35442888  0.54735419  0.35159310     0.00390
C1055       C  0.36407949  0.55188562  0.39430539    -0.08180
C1056       C  0.35122081  0.56537335  0.42187242    -0.05560
C1057       C  0.32858802  0.57360920  0.40833383     0.00380
C1058       C  0.31873879  0.56899205  0.36568865    -0.08090
C1059       C  0.29511116  0.57873872  0.34977286     0.62290
H1060       H  0.32491045  0.55202244  0.30501029     0.12980
H1061       H  0.35820976  0.56897289  0.45465997     0.12990
C1062       C  0.38718053  0.54159852  0.41095793     0.62520
F1063       F  0.29072171  0.57461383  0.30674631    -0.22650
F1064       F  0.30646460  0.61060549  0.35903661    -0.19970
F1065       F  0.26562502  0.56051692  0.36874119    -0.19650
F1066       F  0.41671833  0.55897965  0.39188736    -0.19700
F1067       F  0.37519150  0.50949444  0.40267140    -0.20030
F1068       F  0.39173599  0.54629507  0.45390504    -0.22700
C1069       C  0.35546417  0.83860007  0.75686869     0.00810
C1070       C  0.33811300  0.85352297  0.75708841     0.00810
C1071       C  0.46796137  0.85218960  0.74622332     0.00810
C1072       C  0.43562830  0.83689100  0.74740621     0.00810
C1073       C  0.43156793  0.54729300  0.74712593     0.00810
C1074       C  0.46379734  0.56425170  0.74704348     0.00810
C1075       C  0.36724476  0.53292679  0.82177994     0.03370
C1076       C  0.39855130  0.55106012  0.80557472    -0.12780
C1077       C  0.41323241  0.53508745  0.78723573     0.00870
C1078       C  0.39824211  0.50206591  0.79360420    -0.11300
C1079       C  0.36462574  0.48566753  0.79070952     0.03360
C1080       C  0.34888250  0.50058844  0.80937439    -0.10720
H1081       H  0.41065888  0.57688364  0.80598878     0.08960
H1082       H  0.41072883  0.48980907  0.78316366     0.06490
H1083       H  0.32300902  0.48784569  0.81264269     0.06340
C1084       C  0.36482761  0.53029352  0.67739100     0.03370
C1085       C  0.39773669  0.54852272  0.68822625    -0.12780
C1086       C  0.41273779  0.53326988  0.70747167     0.00870
C1087       C  0.39643302  0.49990648  0.70479393    -0.11300
C1088       C  0.36325931  0.48501122  0.71178066     0.03360
C1089       C  0.34696492  0.49979853  0.69525800    -0.10720
H1090       H  0.41085628  0.57413547  0.68410099     0.08960
H1091       H  0.40896999  0.48771410  0.71501202     0.06490
H1092       H  0.32116633  0.48873292  0.69845104     0.06340
C1093       C  0.35137049  0.96636078  0.75125742     0.00810
C1094       C  0.33908101  0.93455782  0.75080430     0.00810
C1095       C  0.02968376  0.61418931  0.82055246     0.03370
C1096       C  0.04738397  0.59913499  0.80818903    -0.12780
C1097       C  0.03123634  0.56909648  0.78831596     0.00870
C1098       C  0.99777073  0.55245194  0.79220000    -0.11300
C1099       C  0.98294385  0.57085748  0.78638626     0.03360
C1100       C  0.99879381  0.60200677  0.80282556    -0.10720
H1101       H  0.07318158  0.61091027  0.81192934     0.08960
H1102       H  0.98494922  0.52776189  0.78202970     0.06490
H1103       H  0.98841367  0.61721836  0.79909106     0.06340
C1104       C  0.02955448  0.61264046  0.67453800     0.03370
C1105       C  0.04751839  0.59827557  0.68816260    -0.12780
C1106       C  0.03145498  0.56843739  0.70802040     0.00870
C1107       C  0.99798269  0.55140298  0.70344284    -0.11300
C1108       C  0.48272528  0.56959034  0.70788498     0.03360
C1109       C  0.99832586  0.60027898  0.69081677    -0.10720
H1110       H  0.07340316  0.61053301  0.68546423     0.08960
H1111       H  0.98530458  0.52693688  0.71402841     0.06490
H1112       H  0.48746498  0.61519983  0.69309101     0.06340
C1113       C  0.06212709  0.54865173  0.74892958     0.00810
C1114       C  0.04459171  0.56341437  0.74840937     0.00810
C1115       C  0.11153366  0.53299145  0.82202095     0.03370
C1116       C  0.09788475  0.55140100  0.80824398    -0.12780
C1117       C  0.06747085  0.53579442  0.78900751     0.00870
C1118       C  0.04968019  0.50254331  0.79330467    -0.11300
C1119       C  0.06731701  0.98665540  0.78915788     0.03360
C1120       C  0.09807814  0.50150039  0.80671751    -0.10720
H1121       H  0.11116368  0.57718636  0.81043150     0.08960
H1122       H  0.02504730  0.49037075  0.78234562     0.06490
H1123       H  0.11216685  0.98959280  0.80631454     0.06340
C1124       C  0.37056287  0.78687292  0.82125733     0.03370
C1125       C  0.35409550  0.80396863  0.81501921    -0.12780
C1126       C  0.37006116  0.83400527  0.79599837     0.00870
C1127       C  0.40373103  0.84959871  0.79652474    -0.11300
C1128       C  0.41749585  0.83046204  0.78786064     0.03360
C1129       C  0.40153040  0.79924944  0.80358128    -0.10720
H1130       H  0.32879479  0.79334498  0.82194980     0.08960
H1131       H  0.41658003  0.87416158  0.78630319     0.06490
H1132       H  0.41226500  0.78424408  0.80028723     0.06340
Fe1133     Fe  0.33025122  0.64198410  0.50250150     1.65780
Fe1134     Fe  0.25914216  0.64233413  0.49854910     1.73250
Fe1135     Fe  0.25934057  0.57183185  0.49878759     1.54410
O1136       O  0.28587953  0.56970959  0.94934953    -0.81430
O1137       O  0.22442282  0.61193056  0.54132561    -0.79740
O1138       O  0.33455445  0.61183901  0.95947532    -0.83940
O1139       O  0.33183096  0.61589686  0.55210835    -0.78790
O1140       O  0.22606763  0.56857847  0.95534729    -0.80570
O1141       O  0.28431974  0.67085051  0.54867220    -0.83310
C1142       C  0.31515026  0.58668485  0.56116540     0.97450
C1143       C  0.31540195  0.58609682  0.94038330     1.04890
O1144       O  0.28291130  0.61877542  0.99998296    -1.12290
O1145       O  0.29063829  0.67596379  0.95594652    -0.74730
O1146       O  0.33412268  0.67076432  0.95326175    -0.78210
O1147       O  0.28918363  0.56799818  0.54211564    -0.78900
C1148       C  0.31814167  0.68359944  0.94110546     0.96360
O1149       O  0.33272635  0.67538324  0.54581566    -0.76860
O1150       O  0.23125685  0.61660376  0.94793643    -0.82050
C1151       C  0.21694732  0.58526902  0.55808972     0.98980
C1152       C  0.21889908  0.58753468  0.93734971     1.04900
O1153       O  0.23015513  0.56910241  0.54785878    -0.77700
C1154       C  0.31315021  0.68320665  0.56105518     1.03200
C1155       C  0.36719924  0.78598986  0.68300851     0.03370
C1156       C  0.34978767  0.79972033  0.70060705    -0.12780
C1157       C  0.36639859  0.83098388  0.71661451     0.00870
C1158       C  0.39928069  0.84892802  0.70788636    -0.11300
C1159       C  0.41602939  0.83207881  0.70859736     0.03390
C1160       C  0.40074374  0.80173546  0.68976659    -0.10720
H1161       H  0.32391999  0.78574044  0.70357493     0.08960
H1162       H  0.41195936  0.87363508  0.71804064     0.06490
H1163       H  0.41444380  0.79000532  0.68311163     0.06340
C1164       C  0.11443869  0.53333722  0.68082250     0.03370
C1165       C  0.09963380  0.55130426  0.69224916    -0.12780
C1166       C  0.06863488  0.53560347  0.70946778     0.00870
C1167       C  0.05110844  0.50229602  0.70455247    -0.11300
C1168       C  0.06844377  0.48624266  0.71013459     0.03360
C1169       C  0.09980275  0.50118042  0.69396506    -0.10720
H1170       H  0.11242416  0.57703504  0.68972099     0.08960
H1171       H  0.02616266  0.49013045  0.71397893     0.06490
H1172       H  0.11327099  0.48866490  0.69365940     0.06340
C1173       C  0.03731143  0.87213004  0.81851815     0.03370
C1174       C  0.00690147  0.85219620  0.79912993    -0.12780
C1175       C  0.98806113  0.86520272  0.78506492     0.00870
C1176       C  0.99972103  0.89764672  0.79327482    -0.11300
C1177       C  0.03305518  0.91708641  0.79108850     0.03360
C1178       C  0.05110690  0.90540457  0.81117687    -0.10720
H1179       H  0.99836001  0.82706109  0.79386722     0.08960
H1180       H  0.98513315  0.90780913  0.78356686     0.06490
H1181       H  0.07531711  0.92245372  0.81898643     0.06340
C1182       C  0.03454800  0.87041034  0.67876631     0.03370
C1183       C  0.00162372  0.85176555  0.68774279    -0.12780
C1184       C  0.98568690  0.86624514  0.70639420     0.00870
C1185       C  0.00091314  0.89962556  0.70428202    -0.11300
C1186       C  0.03420268  0.91595157  0.71107119     0.03360
C1187       C  0.05149991  0.90207925  0.69413882    -0.10720
H1188       H  0.98904534  0.82620527  0.68263731     0.08960
H1189       H  0.98756901  0.91096168  0.71493955     0.06490
H1190       H  0.07749844  0.91488636  0.69496586     0.06340
Fe1191     Fe  0.07210470  0.76081546  0.00161096     1.65780
Fe1192     Fe  0.14265404  0.83155316  0.50279283     1.73250
Fe1193     Fe  0.14314255  0.76088933  0.50049254     1.54420
O1194       O  0.11274348  0.72660724  0.54240933    -0.81430
O1195       O  0.17253904  0.83532316  0.95449032    -0.79740
O1196       O  0.06982478  0.73231299  0.55072196    -0.83940
O1197       O  0.06916991  0.72736849  0.95825015    -0.78790
O1198       O  0.17120677  0.78617399  0.55070273    -0.80570
O1199       O  0.11240417  0.83480997  0.95858780    -0.83310
C1200       C  0.08813465  0.71994930  0.94002587     0.97450
C1201       C  0.08640363  0.71941903  0.56020909     1.04890
O1202       O  0.11934752  0.78446258  0.50161218    -1.12290
O1203       O  0.11618292  0.83414631  0.55148046    -0.74730
O1204       O  0.06795994  0.79081909  0.54495491    -0.78210
O1205       O  0.11751082  0.73278279  0.95002763    -0.78900
C1206       C  0.08697949  0.81767639  0.56155027     0.96360
O1207       O  0.06945204  0.78670629  0.95223740    -0.76860
O1208       O  0.17571582  0.83423951  0.54695939    -0.82050
C1209       C  0.18539896  0.81901385  0.94375636     0.98980
C1210       C  0.18365212  0.81497239  0.56257450     1.04900
O1211       O  0.17735956  0.79183340  0.95881432    -0.77700
C1212       C  0.08567042  0.81560046  0.94120890     1.03200
C1213       C  0.28656322  0.87000055  0.82192609     0.03370
C1214       C  0.30171373  0.85202814  0.81327520    -0.12780
C1215       C  0.33270563  0.86732234  0.79625496     0.00870
C1216       C  0.34977641  0.90076958  0.79859901    -0.11300
C1217       C  0.33188800  0.91594265  0.79065962     0.03360
C1218       C  0.30060371  0.90147867  0.80691046    -0.10720
H1219       H  0.28887903  0.82639127  0.81732586     0.08960
H1220       H  0.37470010  0.91288346  0.78908434     0.06490
H1221       H  0.28688823  0.91373035  0.80598935     0.06340
C1222       C  0.28838282  0.86985009  0.68286849     0.03370
C1223       C  0.30001523  0.85099230  0.70148192    -0.12780
C1224       C  0.33143409  0.86567290  0.71748213     0.00870
C1225       C  0.35109227  0.89837216  0.70994468    -0.11300
C1226       C  0.33565060  0.91646476  0.71062947     0.03360
C1227       C  0.30632298  0.90328100  0.68909176    -0.10720
H1228       H  0.28448427  0.82547272  0.70469319     0.08960
H1229       H  0.37570715  0.90974163  0.72088776     0.06490
H1230       H  0.29691771  0.91859542  0.68015969     0.06340
C1231       C  0.04573118  0.93531841  0.75073979     0.00810
C1232       C  0.06159025  0.96746196  0.75002822     0.00810
C1233       C  0.20375560  0.82280130  0.87110578    -0.05540
C1234       C  0.21141219  0.83267833  0.91301273     0.00390
C1235       C  0.24332224  0.85572573  0.92414603    -0.08180
C1236       C  0.26663457  0.86739471  0.89270147    -0.05560
C1237       C  0.25913796  0.85746552  0.85086421     0.00380
C1238       C  0.22720120  0.83490598  0.83946786    -0.08090
C1239       C  0.21656103  0.82684804  0.79418174     0.62290
H1240       H  0.17895210  0.80621177  0.86309334     0.12980
H1241       H  0.29129115  0.88452743  0.90101203     0.12990
C1242       C  0.25467137  0.86891176  0.96810953     0.62520
F1243       F  0.18767233  0.79853151  0.79089681    -0.22650
F1244       F  0.23890019  0.82378865  0.77025386    -0.19970
F1245       F  0.21229783  0.85095397  0.77832051    -0.19650
F1246       F  0.23044815  0.85737838  0.99739762    -0.19700
F1247       F  0.27754216  0.86128215  0.48093883    -0.20030
F1248       F  0.26852119  0.90177752  0.96751112    -0.22700
C1249       C  0.25770925  0.83216739  0.62621590    -0.05540
C1250       C  0.25903825  0.85444149  0.65594541     0.00390
C1251       C  0.23424476  0.86246676  0.65597749    -0.08180
C1252       C  0.21043487  0.84931708  0.62458339    -0.05560
C1253       C  0.20916224  0.82696448  0.59515108     0.00380
C1254       C  0.23314542  0.81795279  0.59609988    -0.08090
C1255       C  0.23383425  0.79431154  0.56483540     0.62290
H1256       H  0.27681040  0.82641441  0.62611804     0.12980
H1257       H  0.19200047  0.85604356  0.62368549     0.12990
C1258       C  0.23088220  0.88393951  0.68816425     0.62520
F1259       F  0.26183984  0.79293328  0.56792782    -0.22650
F1260       F  0.23184250  0.80306725  0.02420605    -0.19970
F1261       F  0.20846197  0.76407708  0.57240763    -0.19650
F1262       F  0.23886976  0.91278318  0.66976114    -0.19700
F1263       F  0.24977657  0.88950010  0.72329973    -0.20030
F1264       F  0.19934797  0.86981403  0.70158445    -0.22700
C1265       C  0.05575513  0.86845212  0.60983712    -0.05540
C1266       C  0.05020543  0.85758259  0.65129421     0.00390
C1267       C  0.05756404  0.83391030  0.66401251    -0.08180
C1268       C  0.06949689  0.82104160  0.63376931    -0.05560
C1269       C  0.07434140  0.83155454  0.59206045     0.00380
C1270       C  0.06776547  0.85581024  0.57980571    -0.08090
C1271       C  0.07275540  0.86771184  0.53487507     0.62290
H1272       H  0.04988981  0.88656623  0.60098050     0.12980
H1273       H  0.07514903  0.80274098  0.64237687     0.12990
C1274       C  0.05357895  0.82299672  0.70927796     0.62520
F1275       F  0.06365104  0.89050010  0.52928678    -0.22650
F1276       F  0.05465827  0.84249135  0.00789012    -0.19970
F1277       F  0.10481867  0.88126756  0.52434108    -0.19650
F1278       F  0.02147972  0.80697494  0.71997418    -0.19700
F1279       F  0.06980456  0.84916696  0.73550564    -0.20030
F1280       F  0.06571131  0.80269819  0.71586180    -0.22700
C1281       C  0.03045835  0.82911351  0.86734199    -0.05540
C1282       C  0.05220586  0.85747152  0.84644325     0.00390
C1283       C  0.08571502  0.87030046  0.85514586    -0.08180
C1284       C  0.09500007  0.85591496  0.88649153    -0.05560
C1285       C  0.07306438  0.82781941  0.90715161     0.00380
C1286       C  0.04009126  0.81324819  0.89571896    -0.08090
C1287       C  0.01457103  0.78132397  0.91328798     0.62290
H1288       H  0.00504790  0.81938176  0.86218207     0.12980
H1289       H  0.12015985  0.86672749  0.89484056     0.12990
C1290       C  0.11273571  0.89877095  0.83296655     0.62520
F1291       F  0.98420670  0.77211914  0.89783359    -0.22650
F1292       F  0.01336460  0.78319498  0.95653751    -0.19970
F1293       F  0.02156457  0.75773466  0.90204072    -0.19650
F1294       F  0.11888786  0.92662152  0.85337646    -0.19700
F1295       F  0.10538892  0.89953848  0.79120104    -0.20030
F1296       F  0.14084530  0.89734465  0.83373520    -0.22700
C1297       C  0.13980751  0.52981873  0.61583124    -0.05540
C1298       C  0.14322774  0.54674263  0.65321668     0.00390
C1299       C  0.17170392  0.57652330  0.65983786    -0.08180
C1300       C  0.19486234  0.58889621  0.62757656    -0.05560
C1301       C  0.19119283  0.57180068  0.59020771     0.00380
C1302       C  0.16308781  0.54182614  0.58412165    -0.08090
C1303       C  0.15632754  0.52387667  0.54275145     0.62290
H1304       H  0.11778229  0.50742676  0.61082445     0.12980
H1305       H  0.21649093  0.61176643  0.63208102     0.12990
C1306       C  0.17928548  0.59561778  0.70036019     0.62520
F1307       F  0.12616926  0.49692038  0.54174868    -0.22650
F1308       F  0.17866339  0.51427491  0.53567781    -0.19970
F1309       F  0.15773452  0.54380207  0.01096681    -0.19650
F1310       F  0.15960086  0.57805093  0.73298251    -0.19700
F1311       F  0.17608560  0.62218189  0.69397592    -0.20030
F1312       F  0.21057676  0.60560432  0.71246344    -0.22700
C1313       C  0.33132794  0.75759271  0.62380898    -0.05540
C1314       C  0.35056517  0.75675869  0.65642989     0.00390
C1315       C  0.35573110  0.73031276  0.65909416    -0.08180
C1316       C  0.34370866  0.70719863  0.62680867    -0.05560
C1317       C  0.32466256  0.70824756  0.59409865     0.00380
C1318       C  0.31802179  0.73373193  0.59271311    -0.08090
C1319       C  0.29831514  0.73679353  0.55755622     0.62290
H1320       H  0.32760973  0.77789729  0.62207351     0.12980
H1321       H  0.34857341  0.68759355  0.62773062     0.12990
C1322       C  0.37283255  0.72481994  0.69541499     0.62520
F1323       F  0.29924985  0.76585659  0.55893302    -0.22650
F1324       F  0.26658185  0.71306895  0.56104715    -0.19970
F1325       F  0.31017878  0.73435428  0.51895400    -0.19650
F1326       F  0.37516941  0.74290481  0.73044768    -0.19700
F1327       F  0.40325117  0.73192931  0.68288664    -0.20030
F1328       F  0.35600159  0.69312490  0.70721256    -0.22700
C1329       C  0.37666669  0.75681526  0.87896497    -0.05540
C1330       C  0.35672892  0.75747154  0.84722598     0.00390
C1331       C  0.32436155  0.73225972  0.84475815    -0.08180
C1332       C  0.31252215  0.70919019  0.87668379    -0.05560
C1333       C  0.33245819  0.70882096  0.90866911     0.00380
C1334       C  0.36541819  0.73275572  0.90937014    -0.08090
C1335       C  0.38865506  0.73394071  0.94279643     0.62290
H1336       H  0.40131038  0.77609367  0.88047085     0.12980
H1337       H  0.28755836  0.69053134  0.87582090     0.12990
C1338       C  0.30171732  0.72784393  0.80882142     0.62520
F1339       F  0.41817604  0.76162218  0.94065057    -0.22650
F1340       F  0.39391062  0.70848236  0.93738607    -0.19970
F1341       F  0.37623334  0.73276188  0.98236834    -0.19650
F1342       F  0.31767179  0.74542750  0.77390667    -0.19700
F1343       F  0.27966538  0.73650983  0.82207077    -0.20030
F1344       F  0.28529215  0.69610357  0.79652005    -0.22700
C1345       C  0.16652555  0.54430461  0.91368110    -0.05540
C1346       C  0.19323520  0.57412935  0.90506641     0.00390
C1347       C  0.19385208  0.59008354  0.86755742    -0.08180
C1348       C  0.16711635  0.57552636  0.84036255    -0.05560
C1349       C  0.13981142  0.54632432  0.85026354     0.00380
C1350       C  0.13902402  0.53093352  0.88838817    -0.08090
C1351       C  0.10870943  0.50184583  0.90434407     0.62290
H1352       H  0.16687439  0.53175838  0.94139137     0.12980
H1353       H  0.16706210  0.58722126  0.81160833     0.12990
C1354       C  0.22265215  0.62182773  0.85574215     0.62520
F1355       F  0.11148568  0.49592788  0.94616875    -0.22650
F1356       F  0.10280319  0.97494966  0.88161196    -0.19970
F1357       F  0.08278014  0.50679358  0.90099509    -0.19650
F1358       F  0.25042020  0.61998473  0.85868415    -0.19700
F1359       F  0.22483252  0.64553011  0.88238749    -0.20030
F1360       F  0.22031602  0.63036701  0.81503426    -0.22700
C1361       C  0.04126378  0.66911023  0.58460835    -0.05540
C1362       C  0.07300942  0.69329325  0.59111431     0.00390
C1363       C  0.09068491  0.69134389  0.62544951    -0.08180
C1364       C  0.07517603  0.66551423  0.65327262    -0.05560
C1365       C  0.04342863  0.64084949  0.64634922     0.00380
C1366       C  0.02638434  0.64226601  0.61053426    -0.08090
C1367       C  0.99327648  0.61522850  0.59773943     0.62290
H1368       H  0.02838786  0.67096115  0.55784378     0.12980
H1369       H  0.08802186  0.66414879  0.68034207     0.12990
C1370       C  0.12564908  0.71623807  0.63266457     0.62520
F1371       F  0.48584781  0.61831818  0.55664890    -0.22650
F1372       F  0.46997091  0.61532356  0.62308879    -0.19970
F1373       F  0.49211074  0.58611235  0.60059342    -0.19650
F1374       F  0.12907555  0.74640303  0.63368023    -0.19700
F1375       F  0.14417301  0.71452600  0.60061257    -0.20030
F1376       F  0.13724271  0.71158870  0.67018286    -0.22700
C1377       C  0.04178623  0.67124713  0.91135780    -0.05540
C1378       C  0.07441258  0.69416047  0.90740886     0.00390
C1379       C  0.09222048  0.69114563  0.87372352    -0.08180
C1380       C  0.07611756  0.66600236  0.84449349    -0.05560
C1381       C  0.04363830  0.64262125  0.84918561     0.00380
C1382       C  0.02622795  0.64502018  0.88394287    -0.08090
C1383       C  0.99179497  0.61966315  0.89404060     0.62290
H1384       H  0.02847538  0.67346245  0.93734554     0.12980
H1385       H  0.08915302  0.66401023  0.81804054     0.12990
C1386       C  0.12801188  0.71379725  0.86851008     0.62520
F1387       F  0.48301653  0.62333779  0.93422863    -0.22650
F1388       F  0.48836820  0.58952663  0.89163654    -0.19970
F1389       F  0.47075966  0.62182913  0.86649577    -0.19650
F1390       F  0.14455097  0.71010141  0.90154614    -0.19700
F1391       F  0.13419813  0.74494880  0.86749302    -0.20030
F1392       F  0.13967497  0.70795672  0.83173317    -0.22700
C1393       C  0.35439165  0.57405921  0.65808907    -0.05540
C1394       C  0.34936363  0.54332455  0.64971761     0.00390
C1395       C  0.33264691  0.52693174  0.61265817    -0.08180
C1396       C  0.32130948  0.54195551  0.58568985    -0.05560
C1397       C  0.32697315  0.57295454  0.59336234     0.00380
C1398       C  0.34387910  0.58950026  0.63021820    -0.08090
C1399       C  0.35082467  0.62311429  0.64041234     0.62290
H1400       H  0.36735197  0.58620624  0.68635309     0.12980
H1401       H  0.30854140  0.52974457  0.55734311     0.12990
C1402       C  0.32779562  0.49430960  0.60010221     0.62520
F1403       F  0.36361012  0.63275411  0.68031435    -0.22650
F1404       F  0.32274812  0.62445959  0.63839563    -0.19970
F1405       F  0.37281635  0.64437005  0.61215332    -0.19650
F1406       F  0.30554768  0.97112289  0.62610768    -0.19700
F1407       F  0.35655290  0.49430414  0.60257800    -0.20030
F1408       F  0.31656242  0.48606472  0.55930273    -0.22700
C1409       C  0.33197876  0.55584628  0.83775532    -0.05540
C1410       C  0.35442888  0.54735420  0.85159311     0.00390
C1411       C  0.36407948  0.55188562  0.89430540    -0.08180
C1412       C  0.35122080  0.56537335  0.92187243    -0.05560
C1413       C  0.32858802  0.57360920  0.90833384     0.00380
C1414       C  0.31873880  0.56899206  0.86568866    -0.08090
C1415       C  0.29511118  0.57873876  0.84977287     0.62290
H1416       H  0.32491046  0.55202247  0.80501030     0.12980
H1417       H  0.35820975  0.56897288  0.95465999     0.12990
C1418       C  0.38718052  0.54159851  0.91095794     0.62520
F1419       F  0.29072174  0.57461387  0.80674631    -0.22650
F1420       F  0.30646463  0.61060552  0.85903662    -0.19970
F1421       F  0.26562503  0.56051696  0.86874118    -0.19650
F1422       F  0.41671832  0.55897964  0.89188737    -0.19700
F1423       F  0.37519149  0.50949443  0.90267141    -0.20030
F1424       F  0.39173597  0.54629506  0.95390505    -0.22700
C1425       C  0.85545967  0.33860340  0.25688514     0.00810
C1426       C  0.83810913  0.35352709  0.25709904     0.00810
C1427       C  0.96796257  0.35218225  0.24625144     0.00810
C1428       C  0.93562961  0.33690038  0.24744410     0.00810
C1429       C  0.93160655  0.04726709  0.24711328     0.00810
C1430       C  0.96383541  0.06422219  0.24702750     0.00810
C1431       C  0.86729858  0.03294428  0.32176366     0.03370
C1432       C  0.89860692  0.05106092  0.30555937    -0.12780
C1433       C  0.91327213  0.03507187  0.28722494     0.00870
C1434       C  0.89826482  0.00204974  0.29359777    -0.11300
C1435       C  0.86464839  0.98566753  0.29070399     0.03360
C1436       C  0.84892051  0.00060607  0.30936345    -0.10720
H1437       H  0.91072760  0.07688503  0.30596853     0.08960
H1438       H  0.91073927  0.98978008  0.28315948     0.06490
H1439       H  0.82304699  0.98787701  0.31263085     0.06340
C1440       C  0.86487552  0.03029821  0.17737843     0.03370
C1441       C  0.89778563  0.04851427  0.18821248    -0.12780
C1442       C  0.91277295  0.03324883  0.20746066     0.00870
C1443       C  0.89645254  0.99988532  0.20478726    -0.11300
C1444       C  0.86328023  0.98500715  0.21177627     0.03360
C1445       C  0.84699936  0.99980697  0.19525051    -0.10720
H1446       H  0.91091635  0.07412649  0.18408316     0.08960
H1447       H  0.90897829  0.98768224  0.21500731     0.06490
H1448       H  0.82120142  0.98875265  0.19844046     0.06340
C1449       C  0.85135591  0.46636152  0.25126083     0.00810
C1450       C  0.83907081  0.43455909  0.25080726     0.00810
C1451       C  0.52972256  0.11418279  0.32052078     0.03370
C1452       C  0.54743177  0.09914005  0.30814609    -0.12780
C1453       C  0.53128881  0.06909773  0.28828130     0.00870
C1454       C  0.49782442  0.05244253  0.29217865    -0.11300
C1455       C  0.48298554  0.07083689  0.28636800     0.03360
C1456       C  0.49882817  0.10198797  0.30280248    -0.10720
H1457       H  0.57323058  0.11092424  0.31187646     0.08960
H1458       H  0.48500873  0.02775105  0.28201371     0.06490
H1459       H  0.48843876  0.11719158  0.29906999     0.06340
C1460       C  0.52957851  0.11261713  0.17451330     0.03370
C1461       C  0.54755024  0.09825784  0.18812729    -0.12780
C1462       C  0.53149624  0.06842001  0.20798708     0.00870
C1463       C  0.49802302  0.05137945  0.20342017    -0.11300
C1464       C  0.98275979  0.06956124  0.20786668     0.03360
C1465       C  0.49835179  0.10024923  0.19079857    -0.10720
H1466       H  0.57343473  0.11052055  0.18542223     0.08960
H1467       H  0.48535131  0.02691441  0.21401045     0.06490
H1468       H  0.98748699  0.11516619  0.19308130     0.06340
C1469       C  0.56216631  0.04863532  0.24890390     0.00810
C1470       C  0.54464045  0.06340796  0.24837632     0.00810
C1471       C  0.61158563  0.03301298  0.32203371     0.03370
C1472       C  0.59794161  0.05141819  0.30821899    -0.12780
C1473       C  0.56752258  0.03580184  0.28899564     0.00870
C1474       C  0.54972283  0.00255510  0.29334243    -0.11300
C1475       C  0.56728435  0.48665748  0.28907151     0.03360
C1476       C  0.59811534  0.00150825  0.30678359    -0.10720
H1477       H  0.61122541  0.07720496  0.31036913     0.08960
H1478       H  0.52509058  0.99038030  0.28237977     0.06490
H1479       H  0.61213073  0.48958606  0.30624218     0.06340
C1480       C  0.87056188  0.28688709  0.32129282     0.03370
C1481       C  0.85409214  0.30397889  0.31504325    -0.12780
C1482       C  0.87005685  0.33401368  0.29601834     0.00870
C1483       C  0.90372735  0.34961120  0.29655059    -0.11300
C1484       C  0.91749818  0.33047786  0.28789918     0.03360
C1485       C  0.90153288  0.29926628  0.30362486    -0.10720
H1486       H  0.82879041  0.29335347  0.32196865     0.08960
H1487       H  0.91657476  0.37417324  0.28632569     0.06490
H1488       H  0.91227026  0.28426283  0.30033960     0.06340
Fe1489     Fe  0.83030196  0.14201067  0.00250366     1.65780
Fe1490     Fe  0.75916961  0.14231610  0.99861498     1.73250
Fe1491     Fe  0.75942152  0.07184274  0.99874581     1.54410
O1492       O  0.78595570  0.06976634  0.44927841    -0.81430
O1493       O  0.72446783  0.11187118  0.04140085    -0.79740
O1494       O  0.83462851  0.11187726  0.45947593    -0.83940
O1495       O  0.83189131  0.11592919  0.05210959    -0.78790
O1496       O  0.72613583  0.06859300  0.45532874    -0.80570
O1497       O  0.78433991  0.17081629  0.04875014    -0.83310
C1498       C  0.81523420  0.08670684  0.06112570     0.97450
C1499       C  0.81548252  0.08615259  0.44034395     1.04890
O1500       O  0.78296423  0.11878287  0.49999143    -1.12290
O1501       O  0.79065623  0.17597736  0.45602273    -0.74730
O1502       O  0.83413986  0.17077592  0.45326576    -0.78210
O1503       O  0.78928766  0.06801221  0.04203976    -0.78900
C1504       C  0.81815296  0.18361512  0.44114900     0.96360
O1505       O  0.83276896  0.17540854  0.04581668    -0.76860
O1506       O  0.73128991  0.11660781  0.44798652    -0.82050
C1507       C  0.71702208  0.08520588  0.05813868     0.98980
C1508       C  0.71895448  0.08754960  0.43735824     1.04900
O1509       O  0.73024671  0.06906837  0.04784704    -0.77700
C1510       C  0.81318173  0.18320298  0.06109329     1.03200
C1511       C  0.86720760  0.28599326  0.18303660     0.03370
C1512       C  0.84979091  0.29972103  0.20062879    -0.12780
C1513       C  0.86639744  0.33098583  0.21663481     0.00870
C1514       C  0.89928006  0.34893182  0.20791326    -0.11300
C1515       C  0.91603031  0.33208468  0.20863402     0.03390
C1516       C  0.90075123  0.30174273  0.18980132    -0.10720
H1517       H  0.82392316  0.28573859  0.20359287     0.08960
H1518       H  0.91195597  0.37363950  0.21806495     0.06490
H1519       H  0.91445598  0.29001715  0.18314981     0.06340
C1520       C  0.61452373  0.03333396  0.18092730     0.03370
C1521       C  0.59966510  0.05127727  0.19222652    -0.12780
C1522       C  0.56866798  0.03557161  0.20944908     0.00870
C1523       C  0.55116798  0.00225956  0.20458528    -0.11300
C1524       C  0.56852327  0.98623372  0.21024039     0.03360
C1525       C  0.59990519  0.00119400  0.19414689    -0.10720
H1526       H  0.61241084  0.07700102  0.18960652     0.08960
H1527       H  0.52621902  0.99008602  0.21399910     0.06490
H1528       H  0.61339826  0.98870326  0.19394093     0.06340
C1529       C  0.53735495  0.37216660  0.31850228     0.03370
C1530       C  0.50692324  0.35221843  0.29916191    -0.12780
C1531       C  0.48807575  0.36521505  0.28508174     0.00870
C1532       C  0.49974826  0.39766552  0.29324283    -0.11300
C1533       C  0.53307815  0.41709268  0.29097669     0.03360
C1534       C  0.55116363  0.40542936  0.31101986    -0.10720
H1535       H  0.49837382  0.32707876  0.29392318     0.08960
H1536       H  0.48515255  0.40782189  0.28354440     0.06490
H1537       H  0.57537951  0.42247180  0.31861549     0.06340
C1538       C  0.53452580  0.37040505  0.17871848     0.03370
C1539       C  0.50161461  0.35174575  0.18776002    -0.12780
C1540       C  0.48567418  0.36622200  0.20640840     0.00870
C1541       C  0.50087114  0.39959867  0.20424362    -0.11300
C1542       C  0.53416792  0.41595729  0.21096908     0.03360
C1543       C  0.55146892  0.40209278  0.19402527    -0.10720
H1544       H  0.48904948  0.32618092  0.18269969     0.08960
H1545       H  0.48752036  0.41092554  0.21491069     0.06490
H1546       H  0.57746815  0.41492009  0.19480486     0.06340
Fe1547     Fe  0.57209902  0.26078652  0.50160094     1.65780
Fe1548     Fe  0.64263926  0.33152612  0.00281226     1.73250
Fe1549     Fe  0.64314450  0.26087582  0.00049216     1.54420
O1550       O  0.61273608  0.22658198  0.04238959    -0.81430
O1551       O  0.67251675  0.33530734  0.45449282    -0.79740
O1552       O  0.56982867  0.23230485  0.05073211    -0.83940
O1553       O  0.56917399  0.22732958  0.45826280    -0.78790
O1554       O  0.67119586  0.28615021  0.05071868    -0.80570
O1555       O  0.61237508  0.33477446  0.45862827    -0.83310
C1556       C  0.58814755  0.21992998  0.44002191     0.97450
C1557       C  0.58640365  0.21940355  0.06020458     1.04890
O1558       O  0.61934157  0.28443927  0.00161528    -1.12290
O1559       O  0.61617280  0.33410158  0.05151846    -0.74730
O1560       O  0.56793931  0.29079922  0.04491884    -0.78210
O1561       O  0.61752778  0.23278299  0.45000964    -0.78900
C1562       C  0.58695998  0.31764259  0.06154868     0.96360
O1563       O  0.56944771  0.28666031  0.45220338    -0.76860
O1564       O  0.67571322  0.33421827  0.04696029    -0.82050
C1565       C  0.68539216  0.31901050  0.44376626     0.98980
C1566       C  0.68364599  0.31495100  0.06258238     1.04900
O1567       O  0.67736849  0.29183603  0.45883273    -0.77700
C1568       C  0.58565924  0.31556324  0.44120961     1.03200
C1569       C  0.78655390  0.37000251  0.32193161     0.03370
C1570       C  0.80170580  0.35203112  0.31328201    -0.12780
C1571       C  0.83269824  0.36732655  0.29626307     0.00870
C1572       C  0.84976731  0.40077369  0.29860605    -0.11300
C1573       C  0.83187746  0.41594462  0.29066331     0.03360
C1574       C  0.80059292  0.40147992  0.30691363    -0.10720
H1575       H  0.78887205  0.32639432  0.31733337     0.08960
H1576       H  0.87469139  0.41288868  0.28909323     0.06490
H1577       H  0.78687640  0.41373048  0.30599075     0.06340
C1578       C  0.78838006  0.36984737  0.18286982     0.03370
C1579       C  0.80001459  0.35099229  0.20148562    -0.12780
C1580       C  0.83143226  0.36567573  0.21748983     0.00870
C1581       C  0.85108817  0.39837556  0.20995256    -0.11300
C1582       C  0.83564371  0.41646581  0.21063348     0.03360
C1583       C  0.80631645  0.40327858  0.18909381    -0.10720
H1584       H  0.78448554  0.32547239  0.20469669     0.08960
H1585       H  0.87570257  0.40974716  0.22089780     0.06490
H1586       H  0.79690814  0.41859031  0.18016119     0.06340
C1587       C  0.54571339  0.43533097  0.25062886     0.00810
C1588       C  0.56154922  0.46747438  0.24992306     0.00810
C1589       C  0.70374589  0.32280718  0.37111253    -0.05540
C1590       C  0.71140371  0.33268130  0.41302031     0.00390
C1591       C  0.74331442  0.35572656  0.42415345    -0.08180
C1592       C  0.76662631  0.36739572  0.39270813    -0.05560
C1593       C  0.75912894  0.35746754  0.35087048     0.00380
C1594       C  0.72719147  0.33490985  0.33947438    -0.08090
C1595       C  0.71655024  0.32685026  0.29418877     0.62290
H1596       H  0.67894202  0.30621894  0.36310008     0.12980
H1597       H  0.79128327  0.38452725  0.40101855     0.12990
C1598       C  0.75466430  0.36891030  0.46811750     0.62520
F1599       F  0.68766663  0.29852825  0.29090595    -0.22650
F1600       F  0.73889297  0.32379948  0.27025728    -0.19970
F1601       F  0.71227648  0.35095043  0.27832990    -0.19650
F1602       F  0.73044088  0.35737745  0.49740533    -0.19700
F1603       F  0.77753338  0.36127916  0.98094471    -0.20030
F1604       F  0.76851664  0.40177636  0.46752156    -0.22700
C1605       C  0.75771003  0.33216190  0.12621733    -0.05540
C1606       C  0.75903572  0.35443495  0.15594650     0.00390
C1607       C  0.73423797  0.36245422  0.15598005    -0.08180
C1608       C  0.71042643  0.34929901  0.12458861    -0.05560
C1609       C  0.70915674  0.32694689  0.09515769     0.00380
C1610       C  0.73314489  0.31794235  0.09610363    -0.08090
C1611       C  0.73383745  0.29430455  0.06483687     0.62290
H1612       H  0.77681454  0.32641373  0.12611788     0.12980
H1613       H  0.69198870  0.35602102  0.12369119     0.12990
C1614       C  0.73087335  0.38392663  0.18816536     0.62520
F1615       F  0.76184631  0.29293189  0.06792602    -0.22650
F1616       F  0.73184157  0.30305958  0.52420955    -0.19970
F1617       F  0.70846879  0.26406800  0.07240857    -0.19650
F1618       F  0.73886128  0.41277025  0.16976176    -0.19700
F1619       F  0.74976621  0.38948703  0.22330247    -0.20030
F1620       F  0.69933854  0.36980092  0.20158322    -0.22700
C1621       C  0.55571321  0.36841356  0.10978839    -0.05540
C1622       C  0.55017967  0.35756776  0.15125634     0.00390
C1623       C  0.55756011  0.33391559  0.16399994    -0.08180
C1624       C  0.56948884  0.32103513  0.13376678    -0.05560
C1625       C  0.57431423  0.33152215  0.09204608     0.00380
C1626       C  0.56772701  0.35576600  0.07977027    -0.08090
C1627       C  0.57271857  0.36765606  0.03483410     0.62290
H1628       H  0.54983654  0.38651645  0.10091439     0.12980
H1629       H  0.57515558  0.30274794  0.14239247     0.12990
C1630       C  0.55360836  0.32304041  0.20928198     0.62520
F1631       F  0.56361580  0.39044390  0.02922835    -0.22650
F1632       F  0.55462240  0.34242922  0.50785777    -0.19970
F1633       F  0.60478254  0.38120836  0.02430480    -0.19650
F1634       F  0.52151532  0.30700377  0.22000876    -0.19700
F1635       F  0.56983185  0.34923499  0.23547479    -0.20030
F1636       F  0.56576834  0.30276721  0.21588554    -0.22700
C1637       C  0.53050003  0.32913086  0.36731334    -0.05540
C1638       C  0.55225640  0.35752466  0.34647610     0.00390
C1639       C  0.58576314  0.37036713  0.35526211    -0.08180
C1640       C  0.59502027  0.35592033  0.38655732    -0.05560
C1641       C  0.57307348  0.32779812  0.40714725     0.00380
C1642       C  0.54011355  0.31323520  0.39566866    -0.08090
C1643       C  0.51458697  0.28128757  0.41317125     0.62290
H1644       H  0.50509306  0.31939222  0.36213483     0.12980
H1645       H  0.62016560  0.36672558  0.39497160     0.12990
C1646       C  0.61280616  0.39894484  0.33327740     0.62520
F1647       F  0.48423460  0.27208178  0.39767063    -0.22650
F1648       F  0.51333638  0.28311566  0.45642104    -0.19970
F1649       F  0.52160894  0.25772059  0.40190803    -0.19650
F1650       F  0.61865794  0.42672514  0.35361597    -0.19700
F1651       F  0.60565609  0.39965355  0.29141423    -0.20030
F1652       F  0.64104055  0.39776110  0.33440821    -0.22700
C1653       C  0.64006827  0.02962110  0.11619954    -0.05540
C1654       C  0.64334702  0.04673035  0.15336672     0.00390
C1655       C  0.67171253  0.07664123  0.15978804    -0.08180
C1656       C  0.69484132  0.08898078  0.12748767    -0.05560
C1657       C  0.69130310  0.07171187  0.09032053     0.00380
C1658       C  0.66335956  0.04156023  0.08450096    -0.08090
C1659       C  0.65676334  0.02329885  0.04340749     0.62290
H1660       H  0.61814398  0.00711029  0.11134782     0.12980
H1661       H  0.71636226  0.11196380  0.13182465     0.12990
C1662       C  0.67924068  0.09590324  0.20015935     0.62520
F1663       F  0.62667677  0.99624124  0.04254138    -0.22650
F1664       F  0.67923123  0.01379756  0.03683865    -0.19970
F1665       F  0.65812031  0.04291469  0.51123776    -0.19650
F1666       F  0.65961029  0.07843553  0.23287842    -0.19700
F1667       F  0.67591920  0.12236890  0.19350848    -0.20030
F1668       F  0.71056124  0.10605286  0.21228827    -0.22700
C1669       C  0.83133887  0.25758536  0.12383805    -0.05540
C1670       C  0.85058067  0.25676021  0.15645946     0.00390
C1671       C  0.85575968  0.23032211  0.15912370    -0.08180
C1672       C  0.84374497  0.20720751  0.12683858    -0.05560
C1673       C  0.82469236  0.20824667  0.09413125     0.00380
C1674       C  0.81803912  0.23372254  0.09274412    -0.08090
C1675       C  0.79832552  0.23677239  0.05758671     0.62290
H1676       H  0.82761148  0.27788420  0.12210070     0.12980
H1677       H  0.84861936  0.18760875  0.12775984     0.12990
C1678       C  0.87286638  0.22483710  0.19544492     0.62520
F1679       F  0.79924563  0.26582872  0.05896167    -0.22650
F1680       F  0.76659642  0.21303797  0.06107808    -0.19970
F1681       F  0.81019282  0.23433791  0.01898507    -0.19650
F1682       F  0.87519213  0.24291616  0.23047927    -0.19700
F1683       F  0.90328973  0.23196080  0.18291879    -0.20030
F1684       F  0.85604695  0.19314079  0.20723890    -0.22700
C1685       C  0.87666631  0.25683530  0.37900696    -0.05540
C1686       C  0.85672738  0.25748827  0.34726774     0.00390
C1687       C  0.82435924  0.23227631  0.34480576    -0.08180
C1688       C  0.81252044  0.20921145  0.37673832    -0.05560
C1689       C  0.83245945  0.20884375  0.40872024     0.00380
C1690       C  0.86542031  0.23277755  0.40941379    -0.08090
C1691       C  0.88866282  0.23396157  0.44283105     0.62290
H1692       H  0.90131035  0.27611318  0.38050897     0.12980
H1693       H  0.78755695  0.19055204  0.37587920     0.12990
C1694       C  0.80171562  0.22785201  0.30886437     0.62520
F1695       F  0.91818153  0.26164583  0.44068522    -0.22650
F1696       F  0.89392286  0.20850714  0.43740691    -0.19970
F1697       F  0.87624500  0.23277531  0.48240754    -0.19650
F1698       F  0.81767008  0.24543172  0.27394701    -0.19700
F1699       F  0.77965939  0.23651496  0.32210405    -0.20030
F1700       F  0.78529556  0.19610987  0.29657056    -0.22700
C1701       C  0.66661633  0.04430160  0.41362858    -0.05540
C1702       C  0.69329839  0.07415344  0.40506200     0.00390
C1703       C  0.69389331  0.09013448  0.36758835    -0.08180
C1704       C  0.66715774  0.07557586  0.34039018    -0.05560
C1705       C  0.63986806  0.04635322  0.35026853     0.00380
C1706       C  0.63910674  0.03093560  0.38835845    -0.08090
C1707       C  0.60881784  0.00181569  0.40431122     0.62290
H1708       H  0.66699364  0.03171864  0.44127602     0.12980
H1709       H  0.66709320  0.08728155  0.31164999     0.12990
C1710       C  0.72267350  0.12190309  0.35580795     0.62520
F1711       F  0.61159535  0.99593253  0.44615135    -0.22650
F1712       F  0.60262195  0.47497125  0.38161306    -0.19970
F1713       F  0.58284321  0.00668842  0.40092132    -0.19650
F1714       F  0.75045852  0.12008740  0.35871336    -0.19700
F1715       F  0.72483154  0.14557129  0.38250168    -0.20030
F1716       F  0.72032362  0.13047209  0.31512175    -0.22700
C1717       C  0.54126831  0.16909470  0.08460410    -0.05540
C1718       C  0.57301286  0.19327930  0.09110916     0.00390
C1719       C  0.59069197  0.19133233  0.12544104    -0.08180
C1720       C  0.57518921  0.16549876  0.15325850    -0.05560
C1721       C  0.54344415  0.14082999  0.14633313     0.00380
C1722       C  0.52639389  0.14224815  0.11052574    -0.08090
C1723       C  0.49328454  0.11521126  0.09773462     0.62290
H1724       H  0.52838967  0.17094648  0.05784327     0.12980
H1725       H  0.58803813  0.16413337  0.18032449     0.12990
C1726       C  0.62565341  0.21623361  0.13265838     0.62520
F1727       F  0.98584956  0.11830498  0.05664878    -0.22650
F1728       F  0.96998225  0.11530312  0.12309416    -0.19970
F1729       F  0.99211999  0.08609513  0.10057717    -0.19650
F1730       F  0.62906999  0.24639454  0.13367816    -0.19700
F1731       F  0.64418172  0.21453062  0.10060552    -0.20030
F1732       F  0.63724975  0.21158633  0.17017574    -0.22700
C1733       C  0.54180819  0.17122368  0.41134355    -0.05540
C1734       C  0.57443258  0.19414410  0.40739895     0.00390
C1735       C  0.59224413  0.19114072  0.37370881    -0.08180
C1736       C  0.57614692  0.16600038  0.34447257    -0.05560
C1737       C  0.54366971  0.14261198  0.34916046     0.00380
C1738       C  0.52625557  0.14500085  0.38392087    -0.08090
C1739       C  0.49182388  0.11963820  0.39401354     0.62290
H1740       H  0.52849382  0.17343061  0.43733319     0.12980
H1741       H  0.58918546  0.16401692  0.31801715     0.12990
C1742       C  0.62803361  0.21380187  0.36849591     0.62520
F1743       F  0.98304173  0.12330441  0.43420314    -0.22650
F1744       F  0.98840274  0.08950424  0.39160100    -0.19970
F1745       F  0.97078775  0.12180490  0.36647100    -0.19650
F1746       F  0.64457740  0.21011105  0.40153023    -0.19700
F1747       F  0.63420895  0.24494990  0.36748247    -0.20030
F1748       F  0.63970112  0.20796917  0.33171741    -0.22700
C1749       C  0.85445865  0.07407320  0.15806337    -0.05540
C1750       C  0.84942556  0.04333671  0.14969473     0.00390
C1751       C  0.83271654  0.02694721  0.11263029    -0.08180
C1752       C  0.82139299  0.04197699  0.08565162    -0.05560
C1753       C  0.82705736  0.07297660  0.09332338     0.00380
C1754       C  0.84395438  0.08951827  0.13018713    -0.08090
C1755       C  0.85089767  0.12313103  0.14038676     0.62290
H1756       H  0.86741404  0.08621697  0.18633169     0.12980
H1757       H  0.80863157  0.02976799  0.05730056     0.12990
C1758       C  0.82785645  0.99432028  0.10008291     0.62520
F1759       F  0.86367763  0.13276663  0.18029205    -0.22650
F1760       F  0.82282073  0.12447544  0.13836629    -0.19970
F1761       F  0.87289303  0.14439090  0.11213447    -0.19650
F1762       F  0.80549548  0.47110657  0.12612875    -0.19700
F1763       F  0.85660824  0.99430493  0.10257169    -0.20030
F1764       F  0.81662873  0.98607499  0.05928130    -0.22700
C1765       C  0.83205122  0.05588698  0.33772413    -0.05540
C1766       C  0.85449664  0.04739041  0.35156747     0.00390
C1767       C  0.86415430  0.05193367  0.39427715    -0.08180
C1768       C  0.85130931  0.06543988  0.42183510    -0.05560
C1769       C  0.82867760  0.07367597  0.40829283     0.00380
C1770       C  0.81881895  0.06904448  0.36565062    -0.08090
C1771       C  0.79518523  0.07878245  0.34973050     0.62290
H1772       H  0.82497631  0.05205223  0.30498160     0.12980
H1773       H  0.85830171  0.06904595  0.45462142     0.12990
C1774       C  0.88724252  0.04163336  0.41093928     0.62520
F1775       F  0.79080007  0.07465745  0.30670340    -0.22650
F1776       F  0.80652796  0.11064746  0.35899383    -0.19970
F1777       F  0.76569842  0.06055322  0.36869376    -0.19650
F1778       F  0.91678003  0.05899382  0.39186187    -0.19700
F1779       F  0.87523479  0.00952394  0.40267130    -0.20030
F1780       F  0.89180411  0.04634233  0.45388418    -0.22700
C1781       C  0.85545970  0.33860342  0.75688516     0.00810
C1782       C  0.83810919  0.35352713  0.75709909     0.00810
C1783       C  0.96796258  0.35218227  0.74625139     0.00810
C1784       C  0.93562963  0.33690037  0.74744406     0.00810
C1785       C  0.93160652  0.04726705  0.74711327     0.00810
C1786       C  0.96383538  0.06422214  0.74702749     0.00810
C1787       C  0.86729855  0.03294426  0.82176365     0.03370
C1788       C  0.89860689  0.05106089  0.80555935    -0.12780
C1789       C  0.91327210  0.03507184  0.78722493     0.00870
C1790       C  0.89826479  0.00204971  0.79359775    -0.11300
C1791       C  0.86464836  0.98566751  0.79070397     0.03360
C1792       C  0.84892047  0.00060605  0.80936343    -0.10720
H1793       H  0.91072757  0.07688500  0.80596852     0.08960
H1794       H  0.91073924  0.98978005  0.78315947     0.06490
H1795       H  0.82304696  0.98787699  0.81263082     0.06340
C1796       C  0.86487549  0.03029819  0.67737842     0.03370
C1797       C  0.89778560  0.04851424  0.68821247    -0.12780
C1798       C  0.91277293  0.03324880  0.70746064     0.00870
C1799       C  0.89645251  0.99988529  0.70478724    -0.11300
C1800       C  0.86328020  0.98500713  0.71177625     0.03360
C1801       C  0.84699933  0.99980695  0.69525049    -0.10720
H1802       H  0.91091633  0.07412647  0.68408315     0.08960
H1803       H  0.90897826  0.98768221  0.71500728     0.06490
H1804       H  0.82120140  0.98875263  0.69844044     0.06340
C1805       C  0.85135592  0.46636152  0.75126083     0.00810
C1806       C  0.83907082  0.43455910  0.75080727     0.00810
C1807       C  0.52972251  0.11418274  0.82052077     0.03370
C1808       C  0.54743173  0.09914002  0.80814609    -0.12780
C1809       C  0.53128879  0.06909770  0.78828129     0.00870
C1810       C  0.49782440  0.05244249  0.79217864    -0.11300
C1811       C  0.48298550  0.07083683  0.78636799     0.03360
C1812       C  0.49882811  0.10198791  0.80280247    -0.10720
H1813       H  0.57323054  0.11092422  0.81187645     0.08960
H1814       H  0.48500871  0.02775101  0.78201370     0.06490
H1815       H  0.48843869  0.11719151  0.79906998     0.06340
C1816       C  0.52957846  0.11261709  0.67451329     0.03370
C1817       C  0.54755020  0.09825781  0.68812728    -0.12780
C1818       C  0.53149622  0.06841999  0.70798707     0.00870
C1819       C  0.49802300  0.05137941  0.70342015    -0.11300
C1820       C  0.98275976  0.06956120  0.70786667     0.03360
C1821       C  0.49835174  0.10024917  0.69079856    -0.10720
H1822       H  0.57343469  0.11052054  0.68542222     0.08960
H1823       H  0.48535130  0.02691437  0.71401043     0.06490
H1824       H  0.98748694  0.11516613  0.69308130     0.06340
C1825       C  0.56216631  0.04863532  0.74890389     0.00810
C1826       C  0.54464044  0.06340794  0.74837631     0.00810
C1827       C  0.61158563  0.03301298  0.82203371     0.03370
C1828       C  0.59794161  0.05141819  0.80821898    -0.12780
C1829       C  0.56752258  0.03580184  0.78899563     0.00870
C1830       C  0.54972283  0.00255510  0.79334243    -0.11300
C1831       C  0.56728436  0.48665749  0.78907150     0.03360
C1832       C  0.59811534  0.00150825  0.80678359    -0.10720
H1833       H  0.61122541  0.07720495  0.81036911     0.08960
H1834       H  0.52509058  0.99038030  0.78237977     0.06490
H1835       H  0.61213073  0.48958606  0.80624217     0.06340
C1836       C  0.87056191  0.28688708  0.82129280     0.03370
C1837       C  0.85409218  0.30397889  0.81504326    -0.12780
C1838       C  0.87005689  0.33401369  0.79601835     0.00870
C1839       C  0.90372739  0.34961120  0.79655058    -0.11300
C1840       C  0.91749821  0.33047785  0.78789915     0.03360
C1841       C  0.90153290  0.29926626  0.80362483    -0.10720
H1842       H  0.82879045  0.29335348  0.82196867     0.08960
H1843       H  0.91657480  0.37417323  0.78632569     0.06490
H1844       H  0.91227027  0.28426281  0.80033955     0.06340
Fe1845     Fe  0.83030196  0.14201067  0.50250367     1.65780
Fe1846     Fe  0.75916960  0.14231610  0.49861499     1.73250
Fe1847     Fe  0.75942152  0.07184274  0.49874581     1.54410
O1848       O  0.78595570  0.06976633  0.94927841    -0.81430
O1849       O  0.72446783  0.11187118  0.54140087    -0.79740
O1850       O  0.83462851  0.11187725  0.95947592    -0.83940
O1851       O  0.83189130  0.11592918  0.55210960    -0.78790
O1852       O  0.72613583  0.06859300  0.95532875    -0.80570
O1853       O  0.78433990  0.17081630  0.54875015    -0.83310
C1854       C  0.81523419  0.08670683  0.56112570     0.97450
C1855       C  0.81548252  0.08615258  0.94034395     1.04890
O1856       O  0.78296423  0.11878287  0.99999143    -1.12290
O1857       O  0.79065624  0.17597736  0.95602273    -0.74730
O1858       O  0.83413987  0.17077591  0.95326574    -0.78210
O1859       O  0.78928765  0.06801221  0.54203976    -0.78900
C1860       C  0.81815297  0.18361512  0.94114899     0.96360
O1861       O  0.83276895  0.17540854  0.54581669    -0.76860
O1862       O  0.73128992  0.11660781  0.94798651    -0.82050
C1863       C  0.71702207  0.08520587  0.55813869     0.98980
C1864       C  0.71895449  0.08754960  0.93735823     1.04900
O1865       O  0.73024670  0.06906836  0.54784703    -0.77700
C1866       C  0.81318172  0.18320298  0.56109330     1.03200
C1867       C  0.86720759  0.28599327  0.68303659     0.03370
C1868       C  0.84979091  0.29972104  0.70062880    -0.12780
C1869       C  0.86639746  0.33098584  0.71663482     0.00870
C1870       C  0.89928007  0.34893182  0.70791326    -0.11300
C1871       C  0.91603031  0.33208468  0.70863400     0.03390
C1872       C  0.90075123  0.30174273  0.68980130    -0.10720
H1873       H  0.82392316  0.28573860  0.70359288     0.08960
H1874       H  0.91195599  0.37363951  0.71806495     0.06490
H1875       H  0.91445596  0.29001714  0.68314978     0.06340
C1876       C  0.61452373  0.03333395  0.68092731     0.03370
C1877       C  0.59966509  0.05127726  0.69222652    -0.12780
C1878       C  0.56866798  0.03557160  0.70944908     0.00870
C1879       C  0.55116798  0.00225955  0.70458528    -0.11300
C1880       C  0.56852327  0.98623372  0.71024040     0.03360
C1881       C  0.59990519  0.00119399  0.69414690    -0.10720
H1882       H  0.61241083  0.07700101  0.68960651     0.08960
H1883       H  0.52621901  0.99008601  0.71399910     0.06490
H1884       H  0.61339826  0.98870326  0.69394095     0.06340
C1885       C  0.53735494  0.37216661  0.81850224     0.03370
C1886       C  0.50692324  0.35221844  0.79916186    -0.12780
C1887       C  0.48807575  0.36521506  0.78508169     0.00870
C1888       C  0.49974825  0.39766552  0.79324280    -0.11300
C1889       C  0.53307814  0.41709269  0.79097668     0.03360
C1890       C  0.55116362  0.40542938  0.81101985    -0.10720
H1891       H  0.49837383  0.32707878  0.79392313     0.08960
H1892       H  0.48515254  0.40782190  0.78354437     0.06490
H1893       H  0.57537949  0.42247181  0.81861551     0.06340
C1894       C  0.53452581  0.37040507  0.67871845     0.03370
C1895       C  0.50161461  0.35174578  0.68775998    -0.12780
C1896       C  0.48567417  0.36622202  0.70640836     0.00870
C1897       C  0.50087114  0.39959869  0.70424359    -0.11300
C1898       C  0.53416792  0.41595731  0.71096907     0.03360
C1899       C  0.55146892  0.40209280  0.69402525    -0.10720
H1900       H  0.48904948  0.32618095  0.68269963     0.08960
H1901       H  0.48752036  0.41092556  0.71491066     0.06490
H1902       H  0.57746816  0.41492011  0.69480486     0.06340
Fe1903     Fe  0.57209900  0.26078651  0.00160090     1.65780
Fe1904     Fe  0.64263928  0.33152611  0.50281233     1.73250
Fe1905     Fe  0.64314450  0.26087581  0.50049227     1.54420
O1906       O  0.61273597  0.22658190  0.54238954    -0.81430
O1907       O  0.67251678  0.33530737  0.95449280    -0.79740
O1908       O  0.56982867  0.23230492  0.55073222    -0.83940
O1909       O  0.56917394  0.22732962  0.95826267    -0.78790
O1910       O  0.67119571  0.28615011  0.55071893    -0.80570
O1911       O  0.61237509  0.33477446  0.95862816    -0.83310
C1912       C  0.58814748  0.21992995  0.94002186     0.97450
C1913       C  0.58640359  0.21940354  0.56020462     1.04890
O1914       O  0.61934158  0.28443927  0.50161535    -1.12290
O1915       O  0.61617285  0.33410156  0.55151858    -0.74730
O1916       O  0.56793932  0.29079928  0.54491877    -0.78210
O1917       O  0.61752768  0.23278290  0.95000966    -0.78900
C1918       C  0.58696000  0.31764260  0.56154869     0.96360
O1919       O  0.56944765  0.28666035  0.95220343    -0.76860
O1920       O  0.67571326  0.33421824  0.54696033    -0.82050
C1921       C  0.68539211  0.31901049  0.94376610     0.98980
C1922       C  0.68364591  0.31495093  0.56258256     1.04900
O1923       O  0.67736837  0.29183596  0.95883245    -0.77700
C1924       C  0.58565921  0.31556326  0.94120957     1.03200
C1925       C  0.78655391  0.37000249  0.82193155     0.03370
C1926       C  0.80170588  0.35203115  0.81328209    -0.12780
C1927       C  0.83269832  0.36732659  0.79626313     0.00870
C1928       C  0.84976735  0.40077374  0.79860607    -0.11300
C1929       C  0.83187747  0.41594463  0.79066331     0.03360
C1930       C  0.80059292  0.40147989  0.80691356    -0.10720
H1931       H  0.78887219  0.32639435  0.81733353     0.08960
H1932       H  0.87469143  0.41288874  0.78909323     0.06490
H1933       H  0.78687637  0.41373042  0.80599062     0.06340
C1934       C  0.78837998  0.36984731  0.68286999     0.03370
C1935       C  0.80001457  0.35099227  0.70148578    -0.12780
C1936       C  0.83143226  0.36567574  0.71748989     0.00870
C1937       C  0.85108815  0.39837556  0.70995257    -0.11300
C1938       C  0.83564368  0.41646580  0.71063350     0.03360
C1939       C  0.80631637  0.40327853  0.68909392    -0.10720
H1940       H  0.78448553  0.32547237  0.70469690     0.08960
H1941       H  0.87570256  0.40974718  0.72089777     0.06490
H1942       H  0.79690804  0.41859025  0.68016131     0.06340
C1943       C  0.54571338  0.43533098  0.75062884     0.00810
C1944       C  0.56154922  0.46747440  0.74992305     0.00810
C1945       C  0.70374596  0.32280675  0.87111248    -0.05540
C1946       C  0.71140366  0.33268130  0.91302015     0.00390
C1947       C  0.74331425  0.35572694  0.92415318    -0.08180
C1948       C  0.76662615  0.36739613  0.89270786    -0.05560
C1949       C  0.75912890  0.35746752  0.85087033     0.00380
C1950       C  0.72719155  0.33490938  0.83947435    -0.08090
C1951       C  0.71655039  0.32684918  0.79418877     0.62290
H1952       H  0.67894216  0.30621820  0.86310010     0.12980
H1953       H  0.79128303  0.38452796  0.90101820     0.12990
C1954       C  0.75466406  0.36891101  0.96811712     0.62520
F1955       F  0.68766695  0.29852696  0.79090629    -0.22650
F1956       F  0.73889330  0.32379839  0.77025772    -0.19970
F1957       F  0.71227633  0.35094895  0.77832909    -0.19650
F1958       F  0.73044067  0.35737798  0.99740501    -0.19700
F1959       F  0.77753326  0.36127789  0.48094491    -0.20030
F1960       F  0.76851591  0.40177701  0.96752086    -0.22700
C1961       C  0.75770983  0.33216168  0.62621770    -0.05540
C1962       C  0.75903561  0.35443485  0.65594674     0.00390
C1963       C  0.73423791  0.36245419  0.65598021    -0.08180
C1964       C  0.71042639  0.34929899  0.62458875    -0.05560
C1965       C  0.70915663  0.32694678  0.59515793     0.00380
C1966       C  0.73314467  0.31794210  0.59610404    -0.08090
C1967       C  0.73383710  0.29430410  0.56483750     0.62290
H1968       H  0.77681430  0.32641344  0.62611832     0.12980
H1969       H  0.69198872  0.35602108  0.62369123     0.12990
C1970       C  0.73087333  0.38392666  0.68816548     0.62520
F1971       F  0.76184585  0.29293126  0.56792683    -0.22650
F1972       F  0.73184184  0.30306017  0.02420902    -0.19970
F1973       F  0.70846832  0.26406765  0.57240936    -0.19650
F1974       F  0.73886142  0.41277031  0.66976186    -0.19700
F1975       F  0.74976610  0.38948696  0.72330267    -0.20030
F1976       F  0.69933850  0.36980106  0.70158324    -0.22700
C1977       C  0.55571324  0.36841359  0.60978838    -0.05540
C1978       C  0.55017969  0.35756779  0.65125632     0.00390
C1979       C  0.55756011  0.33391561  0.66399993    -0.08180
C1980       C  0.56948885  0.32103515  0.63376678    -0.05560
C1981       C  0.57431425  0.33152218  0.59204608     0.00380
C1982       C  0.56772705  0.35576603  0.57977027    -0.08090
C1983       C  0.57271864  0.36765611  0.53483410     0.62290
H1984       H  0.54983659  0.38651649  0.60091437     0.12980
H1985       H  0.57515558  0.30274795  0.64239248     0.12990
C1986       C  0.55360834  0.32304042  0.70928197     0.62520
F1987       F  0.56361590  0.39044398  0.52922835    -0.22650
F1988       F  0.55462234  0.34242916  0.00785779    -0.19970
F1989       F  0.60478261  0.38120838  0.52430483    -0.19650
F1990       F  0.52151531  0.30700378  0.72000874    -0.19700
F1991       F  0.56983183  0.34923500  0.73547479    -0.20030
F1992       F  0.56576832  0.30276722  0.71588554    -0.22700
C1993       C  0.53050001  0.32913088  0.86731330    -0.05540
C1994       C  0.55225638  0.35752467  0.84647606     0.00390
C1995       C  0.58576312  0.37036713  0.85526207    -0.08180
C1996       C  0.59502025  0.35592034  0.88655728    -0.05560
C1997       C  0.57307345  0.32779813  0.90714721     0.00380
C1998       C  0.54011353  0.31323521  0.89566862    -0.08090
C1999       C  0.51458694  0.28128757  0.91317120     0.62290
H2000       H  0.50509304  0.31939224  0.86213479     0.12980
H2001       H  0.62016558  0.36672559  0.89497155     0.12990
C2002       C  0.61280614  0.39894483  0.83327734     0.62520
F2003       F  0.48423458  0.27208178  0.89767054    -0.22650
F2004       F  0.51333633  0.28311567  0.95642098    -0.19970
F2005       F  0.52160893  0.25772061  0.90190801    -0.19650
F2006       F  0.61865796  0.42672514  0.85361593    -0.19700
F2007       F  0.60565606  0.39965356  0.79141418    -0.20030
F2008       F  0.64104052  0.39776107  0.83440811    -0.22700
C2009       C  0.64006828  0.02962109  0.61619955    -0.05540
C2010       C  0.64334702  0.04673034  0.65336673     0.00390
C2011       C  0.67171252  0.07664123  0.65978804    -0.08180
C2012       C  0.69484132  0.08898078  0.62748767    -0.05560
C2013       C  0.69130309  0.07171186  0.59032054     0.00380
C2014       C  0.66335956  0.04156022  0.58450098    -0.08090
C2015       C  0.65676335  0.02329883  0.54340752     0.62290
H2016       H  0.61814399  0.00711027  0.61134785     0.12980
H2017       H  0.71636225  0.11196380  0.63182465     0.12990
C2018       C  0.67924067  0.09590325  0.70015934     0.62520
F2019       F  0.62667678  0.99624121  0.54254141    -0.22650
F2020       F  0.67923124  0.01379753  0.53683869    -0.19970
F2021       F  0.65812030  0.04291472  0.01123775    -0.19650
F2022       F  0.65961028  0.07843554  0.73287842    -0.19700
F2023       F  0.67591919  0.12236890  0.69350846    -0.20030
F2024       F  0.71056123  0.10605287  0.71228827    -0.22700
C2025       C  0.83133889  0.25758538  0.62383801    -0.05540
C2026       C  0.85058066  0.25676022  0.65645946     0.00390
C2027       C  0.85575965  0.23032210  0.65912371    -0.08180
C2028       C  0.84374494  0.20720750  0.62683861    -0.05560
C2029       C  0.82469235  0.20824667  0.59413125     0.00380
C2030       C  0.81803915  0.23372257  0.59274408    -0.08090
C2031       C  0.79832561  0.23677245  0.55758662     0.62290
H2032       H  0.82761152  0.27788424  0.62210065     0.12980
H2033       H  0.84861931  0.18760873  0.62775989     0.12990
C2034       C  0.87286634  0.22483710  0.69544495     0.62520
F2035       F  0.79924577  0.26582881  0.55896154    -0.22650
F2036       F  0.76659649  0.21303807  0.56107796    -0.19970
F2037       F  0.81019292  0.23433793  0.51898501    -0.19650
F2038       F  0.87519210  0.24291617  0.73047929    -0.19700
F2039       F  0.90328969  0.23196077  0.68291882    -0.20030
F2040       F  0.85604690  0.19314079  0.70723894    -0.22700
C2041       C  0.87666633  0.25683528  0.87900693    -0.05540
C2042       C  0.85672740  0.25748826  0.84726772     0.00390
C2043       C  0.82435925  0.23227632  0.84480575    -0.08180
C2044       C  0.81252046  0.20921145  0.87673831    -0.05560
C2045       C  0.83245946  0.20884375  0.90872023     0.00380
C2046       C  0.86542033  0.23277753  0.90941377    -0.08090
C2047       C  0.88866283  0.23396155  0.94283102     0.62290
H2048       H  0.90131038  0.27611316  0.88050894     0.12980
H2049       H  0.78755696  0.19055206  0.87587920     0.12990
C2050       C  0.80171563  0.22785202  0.80886437     0.62520
F2051       F  0.91818155  0.26164581  0.94068519    -0.22650
F2052       F  0.89392286  0.20850712  0.93740689    -0.19970
F2053       F  0.87624502  0.23277530  0.98240752    -0.19650
F2054       F  0.81767008  0.24543174  0.77394701    -0.19700
F2055       F  0.77965941  0.23651498  0.82210406    -0.20030
F2056       F  0.78529556  0.19610989  0.79657056    -0.22700
C2057       C  0.66661633  0.04430160  0.91362859    -0.05540
C2058       C  0.69329840  0.07415344  0.90506199     0.00390
C2059       C  0.69389331  0.09013448  0.86758835    -0.08180
C2060       C  0.66715774  0.07557586  0.84039018    -0.05560
C2061       C  0.63986806  0.04635322  0.85026853     0.00380
C2062       C  0.63910674  0.03093561  0.88835845    -0.08090
C2063       C  0.60881783  0.00181570  0.90431122     0.62290
H2064       H  0.66699364  0.03171864  0.94127602     0.12980
H2065       H  0.66709320  0.08728155  0.81164999     0.12990
C2066       C  0.72267350  0.12190308  0.85580794     0.62520
F2067       F  0.61159534  0.99593254  0.94615136    -0.22650
F2068       F  0.60262195  0.47497125  0.88161305    -0.19970
F2069       F  0.58284321  0.00668843  0.90092133    -0.19650
F2070       F  0.75045852  0.12008739  0.85871335    -0.19700
F2071       F  0.72483155  0.14557129  0.88250167    -0.20030
F2072       F  0.72032362  0.13047208  0.81512174    -0.22700
C2073       C  0.54126824  0.16909469  0.58460412    -0.05540
C2074       C  0.57301279  0.19327928  0.59110919     0.00390
C2075       C  0.59069190  0.19133230  0.62544105    -0.08180
C2076       C  0.57518914  0.16549873  0.65325851    -0.05560
C2077       C  0.54344409  0.14082996  0.64633313     0.00380
C2078       C  0.52639382  0.14224813  0.61052575    -0.08090
C2079       C  0.49328447  0.11521124  0.59773463     0.62290
H2080       H  0.52838960  0.17094649  0.55784331     0.12980
H2081       H  0.58803806  0.16413333  0.68032449     0.12990
C2082       C  0.62565335  0.21623357  0.63265838     0.62520
F2083       F  0.98584951  0.11830499  0.55664880    -0.22650
F2084       F  0.96998220  0.11530311  0.62309418    -0.19970
F2085       F  0.99211994  0.08609513  0.60057716    -0.19650
F2086       F  0.62906995  0.24639450  0.63367815    -0.19700
F2087       F  0.64418163  0.21453056  0.60060550    -0.20030
F2088       F  0.63724970  0.21158628  0.67017573    -0.22700
C2089       C  0.54180812  0.17122365  0.91134351    -0.05540
C2090       C  0.57443250  0.19414407  0.90739891     0.00390
C2091       C  0.59224405  0.19114069  0.87370878    -0.08180
C2092       C  0.57614685  0.16600034  0.84447254    -0.05560
C2093       C  0.54366965  0.14261193  0.84916045     0.00380
C2094       C  0.52625550  0.14500081  0.88392085    -0.08090
C2095       C  0.49182381  0.11963816  0.89401352     0.62290
H2096       H  0.52849374  0.17343059  0.93733315     0.12980
H2097       H  0.58918539  0.16401688  0.81801713     0.12990
C2098       C  0.62803353  0.21380184  0.86849587     0.62520
F2099       F  0.98304166  0.12330440  0.93420310    -0.22650
F2100       F  0.98840269  0.08950423  0.89160098    -0.19970
F2101       F  0.97078768  0.12180487  0.86647096    -0.19650
F2102       F  0.64457733  0.21011103  0.90153018    -0.19700
F2103       F  0.63420885  0.24494986  0.86748245    -0.20030
F2104       F  0.63970104  0.20796916  0.83171736    -0.22700
C2105       C  0.85445863  0.07407318  0.65806337    -0.05540
C2106       C  0.84942554  0.04333670  0.64969472     0.00390
C2107       C  0.83271653  0.02694720  0.61263027    -0.08180
C2108       C  0.82139299  0.04197699  0.58565160    -0.05560
C2109       C  0.82705735  0.07297659  0.59332338     0.00380
C2110       C  0.84395436  0.08951826  0.63018714    -0.08090
C2111       C  0.85089765  0.12313102  0.64038677     0.62290
H2112       H  0.86741402  0.08621694  0.68633169     0.12980
H2113       H  0.80863157  0.02976799  0.55730054     0.12990
C2114       C  0.82785644  0.99432027  0.60008288     0.62520
F2115       F  0.86367761  0.13276661  0.68029206    -0.22650
F2116       F  0.82282071  0.12447542  0.63836630    -0.19970
F2117       F  0.87289302  0.14439089  0.61213449    -0.19650
F2118       F  0.80549548  0.47110657  0.62612876    -0.19700
F2119       F  0.85660823  0.99430493  0.60257166    -0.20030
F2120       F  0.81662873  0.98607499  0.55928128    -0.22700
C2121       C  0.83205120  0.05588697  0.83772412    -0.05540
C2122       C  0.85449662  0.04739038  0.85156746     0.00390
C2123       C  0.86415427  0.05193364  0.89427714    -0.08180
C2124       C  0.85130929  0.06543986  0.92183509    -0.05560
C2125       C  0.82867759  0.07367595  0.90829282     0.00380
C2126       C  0.81881894  0.06904447  0.86565062    -0.08090
C2127       C  0.79518523  0.07878245  0.84973050     0.62290
H2128       H  0.82497629  0.05205222  0.80498159     0.12980
H2129       H  0.85830169  0.06904592  0.95462141     0.12990
C2130       C  0.88724249  0.04163332  0.91093926     0.62520
F2131       F  0.79080006  0.07465745  0.80670340    -0.22650
F2132       F  0.80652797  0.11064746  0.85899383    -0.19970
F2133       F  0.76569842  0.06055323  0.86869376    -0.19650
F2134       F  0.91678000  0.05899377  0.89186186    -0.19700
F2135       F  0.87523475  0.00952390  0.90267128    -0.20030
F2136       F  0.89180408  0.04634229  0.95388417    -0.22700
C2137       C  0.85546419  0.83860008  0.25686867     0.00810
C2138       C  0.83811303  0.85352299  0.25708839     0.00810
C2139       C  0.96796138  0.85218959  0.24622331     0.00810
C2140       C  0.93562831  0.83689100  0.24740620     0.00810
C2141       C  0.93156793  0.54729299  0.24712592     0.00810
C2142       C  0.96379735  0.56425171  0.24704347     0.00810
C2143       C  0.86724476  0.53292678  0.32177993     0.03370
C2144       C  0.89855130  0.55106011  0.30557471    -0.12780
C2145       C  0.91323241  0.53508744  0.28723572     0.00870
C2146       C  0.89824212  0.50206590  0.29360420    -0.11300
C2147       C  0.86462574  0.48566752  0.29070952     0.03360
C2148       C  0.84888250  0.50058843  0.30937439    -0.10720
H2149       H  0.91065888  0.57688363  0.30598877     0.08960
H2150       H  0.91072883  0.48980906  0.28316365     0.06490
H2151       H  0.82300903  0.48784568  0.31264269     0.06340
C2152       C  0.86482761  0.53029351  0.17739099     0.03370
C2153       C  0.89773670  0.54852271  0.18822624    -0.12780
C2154       C  0.91273780  0.53326987  0.20747167     0.00870
C2155       C  0.89643302  0.49990647  0.20479393    -0.11300
C2156       C  0.86325931  0.48501120  0.21178066     0.03360
C2157       C  0.84696493  0.49979852  0.19525800    -0.10720
H2158       H  0.91085629  0.57413546  0.18410097     0.08960
H2159       H  0.90896999  0.48771409  0.21501201     0.06490
H2160       H  0.82116633  0.48873292  0.19845103     0.06340
C2161       C  0.85137052  0.96636080  0.25125745     0.00810
C2162       C  0.83908101  0.93455783  0.25080433     0.00810
C2163       C  0.52968375  0.61418932  0.32055246     0.03370
C2164       C  0.54738397  0.59913500  0.30818903    -0.12780
C2165       C  0.53123634  0.56909649  0.28831597     0.00870
C2166       C  0.49777073  0.55245195  0.29220001    -0.11300
C2167       C  0.48294384  0.57085748  0.28638626     0.03360
C2168       C  0.49879380  0.60200677  0.30282556    -0.10720
H2169       H  0.57318158  0.61091028  0.31192934     0.08960
H2170       H  0.48494922  0.52776190  0.28202971     0.06490
H2171       H  0.48841366  0.61721836  0.29909106     0.06340
C2172       C  0.52955449  0.61264047  0.17453802     0.03370
C2173       C  0.54751840  0.59827558  0.18816261    -0.12780
C2174       C  0.53145499  0.56843740  0.20802041     0.00870
C2175       C  0.49798269  0.55140299  0.20344284    -0.11300
C2176       C  0.98272530  0.56959034  0.20788498     0.03360
C2177       C  0.49832587  0.60027900  0.19081678    -0.10720
H2178       H  0.57340317  0.61053302  0.18546425     0.08960
H2179       H  0.48530458  0.52693689  0.21402841     0.06490
H2180       H  0.98746501  0.61519984  0.19309101     0.06340
C2181       C  0.56212709  0.54865173  0.24892959     0.00810
C2182       C  0.54459171  0.56341438  0.24840938     0.00810
C2183       C  0.61153365  0.53299145  0.32202095     0.03370
C2184       C  0.59788475  0.55140100  0.30824398    -0.12780
C2185       C  0.56747084  0.53579443  0.28900752     0.00870
C2186       C  0.54968018  0.50254331  0.29330467    -0.11300
C2187       C  0.56731701  0.98665541  0.28915787     0.03360
C2188       C  0.59807814  0.50150039  0.30671752    -0.10720
H2189       H  0.61116368  0.57718636  0.31043151     0.08960
H2190       H  0.52504729  0.49037075  0.28234563     0.06490
H2191       H  0.61216685  0.98959280  0.30631453     0.06340
C2192       C  0.87056288  0.78687292  0.32125732     0.03370
C2193       C  0.85409551  0.80396863  0.31501920    -0.12780
C2194       C  0.87006117  0.83400528  0.29599835     0.00870
C2195       C  0.90373104  0.84959871  0.29652472    -0.11300
C2196       C  0.91749586  0.83046204  0.28786063     0.03360
C2197       C  0.90153041  0.79924944  0.30358127    -0.10720
H2198       H  0.82879480  0.79334499  0.32194978     0.08960
H2199       H  0.91658004  0.87416158  0.28630318     0.06490
H2200       H  0.91226500  0.78424408  0.30028722     0.06340
Fe2201     Fe  0.83025122  0.64198409  0.00250151     1.65780
Fe2202     Fe  0.75914216  0.64233413  0.99854911     1.73250
Fe2203     Fe  0.75934057  0.57183184  0.99878760     1.54410
O2204       O  0.78587953  0.56970959  0.44934953    -0.81430
O2205       O  0.72442281  0.61193055  0.04132561    -0.79740
O2206       O  0.83455446  0.61183901  0.45947530    -0.83940
O2207       O  0.83183096  0.61589685  0.05210836    -0.78790
O2208       O  0.72606764  0.56857848  0.45534727    -0.80570
O2209       O  0.78431973  0.67085050  0.04867221    -0.83310
C2210       C  0.81515025  0.58668484  0.06116541     0.97450
C2211       C  0.81540196  0.58609682  0.44038329     1.04890
O2212       O  0.78291132  0.61877542  0.49998295    -1.12290
O2213       O  0.79063830  0.67596378  0.45594649    -0.74730
O2214       O  0.83412270  0.67076433  0.45326175    -0.78210
O2215       O  0.78918362  0.56799817  0.04211564    -0.78900
C2216       C  0.81814168  0.68359944  0.44110544     0.96360
O2217       O  0.83272634  0.67538323  0.04581567    -0.76860
O2218       O  0.73125685  0.61660376  0.44793643    -0.82050
C2219       C  0.71694732  0.58526902  0.05808972     0.98980
C2220       C  0.71889908  0.58753468  0.43734970     1.04900
O2221       O  0.73015513  0.56910240  0.04785878    -0.77700
C2222       C  0.81315020  0.68320664  0.06105519     1.03200
C2223       C  0.86719925  0.78598986  0.18300851     0.03370
C2224       C  0.84978768  0.79972034  0.20060704    -0.12780
C2225       C  0.86639861  0.83098389  0.21661450     0.00870
C2226       C  0.89928070  0.84892803  0.20788635    -0.11300
C2227       C  0.91602940  0.83207881  0.20859735     0.03390
C2228       C  0.90074374  0.80173546  0.18976658    -0.10720
H2229       H  0.82392000  0.78574045  0.20357493     0.08960
H2230       H  0.91195937  0.87363508  0.21804062     0.06490
H2231       H  0.91444381  0.79000532  0.18311161     0.06340
C2232       C  0.61443868  0.53333722  0.18082251     0.03370
C2233       C  0.59963379  0.55130426  0.19224917    -0.12780
C2234       C  0.56863488  0.53560347  0.20946779     0.00870
C2235       C  0.55110844  0.50229602  0.20455247    -0.11300
C2236       C  0.56844376  0.48624266  0.21013460     0.03360
C2237       C  0.59980275  0.50118042  0.19396507    -0.10720
H2238       H  0.61242415  0.57703504  0.18972100     0.08960
H2239       H  0.52616265  0.49013045  0.21397894     0.06490
H2240       H  0.61327098  0.48866489  0.19365940     0.06340
C2241       C  0.53731143  0.87213005  0.31851813     0.03370
C2242       C  0.50690147  0.85219621  0.29912992    -0.12780
C2243       C  0.48806112  0.86520273  0.28506491     0.00870
C2244       C  0.49972102  0.89764673  0.29327482    -0.11300
C2245       C  0.53305517  0.91708642  0.29108849     0.03360
C2246       C  0.55110690  0.90540458  0.31117686    -0.10720
H2247       H  0.49836002  0.82706111  0.29386720     0.08960
H2248       H  0.48513314  0.90780914  0.28356685     0.06490
H2249       H  0.57531710  0.92245374  0.31898641     0.06340
C2250       C  0.53454799  0.87041036  0.17876630     0.03370
C2251       C  0.50162371  0.85176556  0.18774278    -0.12780
C2252       C  0.48568689  0.86624515  0.20639419     0.00870
C2253       C  0.50091313  0.89962557  0.20428201    -0.11300
C2254       C  0.53420267  0.91595159  0.21107118     0.03360
C2255       C  0.55149990  0.90207926  0.19413881    -0.10720
H2256       H  0.48904533  0.82620528  0.18263730     0.08960
H2257       H  0.48756900  0.91096169  0.21493954     0.06490
H2258       H  0.57749843  0.91488637  0.19496585     0.06340
Fe2259     Fe  0.57210469  0.76081547  0.50161096     1.65780
Fe2260     Fe  0.64265405  0.83155317  0.00279283     1.73250
Fe2261     Fe  0.64314255  0.76088934  0.00049252     1.54420
O2262       O  0.61274352  0.72660728  0.04240937    -0.81430
O2263       O  0.67253906  0.83532316  0.45449035    -0.79740
O2264       O  0.56982478  0.73231297  0.05072194    -0.83940
O2265       O  0.56916990  0.72736851  0.45825013    -0.78790
O2266       O  0.67120682  0.78617404  0.05070266    -0.80570
O2267       O  0.61240420  0.83480999  0.45858777    -0.83310
C2268       C  0.58813464  0.71994932  0.44002586     0.97450
C2269       C  0.58640365  0.71941905  0.06020910     1.04890
O2270       O  0.61934752  0.78446259  0.00161218    -1.12290
O2271       O  0.61618291  0.83414633  0.05148044    -0.74730
O2272       O  0.56795994  0.79081909  0.04495495    -0.78210
O2273       O  0.61751080  0.73278279  0.45002763    -0.78900
C2274       C  0.58697949  0.81767640  0.06155027     0.96360
O2275       O  0.56945205  0.78670632  0.45223741    -0.76860
O2276       O  0.67571581  0.83423953  0.04695940    -0.82050
C2277       C  0.68539897  0.81901384  0.44375639     0.98980
C2278       C  0.68365215  0.81497243  0.06257447     1.04900
O2279       O  0.67735956  0.79183338  0.45881435    -0.77700
C2280       C  0.58567044  0.81560049  0.44120888     1.03200
C2281       C  0.78656325  0.87000055  0.32192614     0.03370
C2282       C  0.80171376  0.85202814  0.31327520    -0.12780
C2283       C  0.83270565  0.86732236  0.29625494     0.00870
C2284       C  0.84977643  0.90076959  0.29859901    -0.11300
C2285       C  0.83188802  0.91594266  0.29065965     0.03360
C2286       C  0.80060373  0.90147867  0.30691051    -0.10720
H2287       H  0.78887905  0.82639127  0.31732583     0.08960
H2288       H  0.87470012  0.91288348  0.28908434     0.06490
H2289       H  0.78688824  0.91373034  0.30598942     0.06340
C2290       C  0.78838283  0.86985010  0.18286848     0.03370
C2291       C  0.80001526  0.85099232  0.20148188    -0.12780
C2292       C  0.83143412  0.86567293  0.21748211     0.00870
C2293       C  0.85109228  0.89837219  0.20994468    -0.11300
C2294       C  0.83565059  0.91646477  0.21062950     0.03360
C2295       C  0.80632298  0.90328101  0.18909179    -0.10720
H2296       H  0.78448431  0.82547273  0.20469312     0.08960
H2297       H  0.87570717  0.90974167  0.22088776     0.06490
H2298       H  0.79691768  0.91859541  0.18015976     0.06340
C2299       C  0.54573117  0.93531842  0.25073978     0.00810
C2300       C  0.56159025  0.96746197  0.25002821     0.00810
C2301       C  0.70375560  0.82280142  0.37110577    -0.05540
C2302       C  0.71141221  0.83267831  0.41301276     0.00390
C2303       C  0.74332230  0.85572558  0.42414612    -0.08180
C2304       C  0.76663463  0.86739456  0.39270157    -0.05560
C2305       C  0.75913800  0.85746549  0.35086427     0.00380
C2306       C  0.72720121  0.83490607  0.33946787    -0.08090
C2307       C  0.71656101  0.82684826  0.29418175     0.62290
H2308       H  0.67895207  0.80621199  0.36309329     0.12980
H2309       H  0.79129123  0.88452719  0.40101216     0.12990
C2310       C  0.75467144  0.86891148  0.46810966     0.62520
F2311       F  0.68767242  0.79853163  0.29089675    -0.22650
F2312       F  0.73890024  0.82378913  0.27025367    -0.19970
F2313       F  0.71229760  0.85095414  0.27832079    -0.19650
F2314       F  0.73044822  0.85737812  0.49739773    -0.19700
F2315       F  0.77754221  0.86128260  0.98093875    -0.20030
F2316       F  0.76852140  0.90177726  0.46751140    -0.22700
C2317       C  0.75770931  0.83216746  0.12621581    -0.05540
C2318       C  0.75903828  0.85444151  0.15594538     0.00390
C2319       C  0.73424476  0.86246674  0.15597751    -0.08180
C2320       C  0.71043487  0.84931707  0.12458340    -0.05560
C2321       C  0.70916228  0.82696452  0.09515103     0.00380
C2322       C  0.73314549  0.81795288  0.09609978    -0.08090
C2323       C  0.73383438  0.79431171  0.06483520     0.62290
H2324       H  0.77681049  0.82641451  0.12611792     0.12980
H2325       H  0.69200045  0.85604352  0.12368554     0.12990
C2326       C  0.73088218  0.88393944  0.18816432     0.62520
F2327       F  0.76184000  0.79293351  0.06792756    -0.22650
F2328       F  0.73184238  0.80306694  0.52420635    -0.19970
F2329       F  0.70846214  0.76407721  0.07240736    -0.19650
F2330       F  0.73886974  0.91278314  0.16976128    -0.19700
F2331       F  0.74977652  0.88949998  0.22329981    -0.20030
F2332       F  0.69934794  0.86981393  0.20158449    -0.22700
C2333       C  0.55575512  0.86845212  0.10983712    -0.05540
C2334       C  0.55020542  0.85758260  0.15129420     0.00390
C2335       C  0.55756404  0.83391031  0.16401251    -0.08180
C2336       C  0.56949688  0.82104161  0.13376931    -0.05560
C2337       C  0.57434139  0.83155454  0.09206046     0.00380
C2338       C  0.56776546  0.85581024  0.07980571    -0.08090
C2339       C  0.57275538  0.86771184  0.03487506     0.62290
H2340       H  0.54988980  0.88656623  0.10098049     0.12980
H2341       H  0.57514903  0.80274100  0.14237688     0.12990
C2342       C  0.55357894  0.82299673  0.20927797     0.62520
F2343       F  0.56365101  0.89050008  0.02928676    -0.22650
F2344       F  0.55465822  0.84249131  0.50789010    -0.19970
F2345       F  0.60481866  0.88126757  0.02434107    -0.19650
F2346       F  0.52147971  0.80697496  0.21997418    -0.19700
F2347       F  0.56980456  0.84916698  0.23550564    -0.20030
F2348       F  0.56571130  0.80269821  0.21586181    -0.22700
C2349       C  0.53045836  0.82911352  0.36734195    -0.05540
C2350       C  0.55220587  0.85747153  0.34644322     0.00390
C2351       C  0.58571503  0.87030049  0.35514585    -0.08180
C2352       C  0.59500009  0.85591500  0.38649151    -0.05560
C2353       C  0.57306440  0.82781944  0.40715159     0.00380
C2354       C  0.54009128  0.81324820  0.39571892    -0.08090
C2355       C  0.51457105  0.78132396  0.41328791     0.62290
H2356       H  0.50504792  0.81938176  0.36218203     0.12980
H2357       H  0.62015986  0.86672754  0.39484056     0.12990
C2358       C  0.61273572  0.89877098  0.33296654     0.62520
F2359       F  0.48420672  0.77211912  0.39783348    -0.22650
F2360       F  0.51336459  0.78319496  0.45653744    -0.19970
F2361       F  0.52156463  0.75773468  0.40204066    -0.19650
F2362       F  0.61888786  0.92662155  0.35337645    -0.19700
F2363       F  0.60538893  0.89953851  0.29120103    -0.20030
F2364       F  0.64084531  0.89734469  0.33373519    -0.22700
C2365       C  0.63980751  0.52981873  0.11583124    -0.05540
C2366       C  0.64322774  0.54674263  0.15321668     0.00390
C2367       C  0.67170391  0.57652330  0.15983786    -0.08180
C2368       C  0.69486234  0.58889621  0.12757656    -0.05560
C2369       C  0.69119282  0.57180068  0.09020771     0.00380
C2370       C  0.66308780  0.54182613  0.08412165    -0.08090
C2371       C  0.65632753  0.52387666  0.04275146     0.62290
H2372       H  0.61778228  0.50742676  0.11082446     0.12980
H2373       H  0.71649092  0.61176643  0.13208102     0.12990
C2374       C  0.67928548  0.59561779  0.20036019     0.62520
F2375       F  0.62616925  0.49692038  0.04174869    -0.22650
F2376       F  0.67866338  0.51427491  0.03567782    -0.19970
F2377       F  0.65773454  0.54380207  0.51096680    -0.19650
F2378       F  0.65960085  0.57805093  0.23298251    -0.19700
F2379       F  0.67608560  0.62218189  0.19397591    -0.20030
F2380       F  0.71057676  0.60560432  0.21246344    -0.22700
C2381       C  0.83132792  0.75759270  0.12380900    -0.05540
C2382       C  0.85056517  0.75675869  0.15642989     0.00390
C2383       C  0.85573110  0.73031276  0.15909415    -0.08180
C2384       C  0.84370866  0.70719863  0.12680866    -0.05560
C2385       C  0.82466255  0.70824755  0.09409866     0.00380
C2386       C  0.81802176  0.73373191  0.09271313    -0.08090
C2387       C  0.79831510  0.73679350  0.05755626     0.62290
H2388       H  0.82760971  0.77789727  0.12207353     0.12980
H2389       H  0.84857342  0.68759356  0.12773062     0.12990
C2390       C  0.87283256  0.72481994  0.19541498     0.62520
F2391       F  0.79924978  0.76585655  0.05893308    -0.22650
F2392       F  0.76658181  0.71306890  0.06104721    -0.19970
F2393       F  0.81017872  0.73435427  0.01895403    -0.19650
F2394       F  0.87516942  0.74290481  0.23044767    -0.19700
F2395       F  0.90325117  0.73192932  0.18288662    -0.20030
F2396       F  0.85600161  0.69312490  0.20721255    -0.22700
C2397       C  0.87666670  0.75681526  0.37896496    -0.05540
C2398       C  0.85672893  0.75747154  0.34722597     0.00390
C2399       C  0.82436156  0.73225972  0.34475814    -0.08180
C2400       C  0.81252216  0.70919019  0.37668378    -0.05560
C2401       C  0.83245820  0.70882096  0.40866909     0.00380
C2402       C  0.86541821  0.73275572  0.40937012    -0.08090
C2403       C  0.88865507  0.73394072  0.44279642     0.62290
H2404       H  0.90131039  0.77609368  0.38047084     0.12980
H2405       H  0.78755837  0.69053134  0.37582089     0.12990
C2406       C  0.80171733  0.72784394  0.30882142     0.62520
F2407       F  0.91817605  0.76162218  0.44065056    -0.22650
F2408       F  0.89391064  0.70848237  0.43738606    -0.19970
F2409       F  0.87623335  0.73276189  0.48236833    -0.19650
F2410       F  0.81767180  0.74542750  0.27390666    -0.19700
F2411       F  0.77966540  0.73650984  0.32207076    -0.20030
F2412       F  0.78529216  0.69610357  0.29652005    -0.22700
C2413       C  0.66652555  0.54430461  0.41368110    -0.05540
C2414       C  0.69323521  0.57412935  0.40506640     0.00390
C2415       C  0.69385208  0.59008354  0.36755742    -0.08180
C2416       C  0.66711635  0.57552636  0.34036255    -0.05560
C2417       C  0.63981142  0.54632432  0.35026355     0.00380
C2418       C  0.63902402  0.53093353  0.38838817    -0.08090
C2419       C  0.60870942  0.50184585  0.40434408     0.62290
H2420       H  0.66687439  0.53175838  0.44139137     0.12980
H2421       H  0.66706210  0.58722126  0.31160833     0.12990
C2422       C  0.72265215  0.62182772  0.35574214     0.62520
F2423       F  0.61148568  0.49592790  0.44616877    -0.22650
F2424       F  0.60280317  0.97494967  0.38161195    -0.19970
F2425       F  0.58278015  0.50679361  0.40099511    -0.19650
F2426       F  0.75042021  0.61998472  0.35868413    -0.19700
F2427       F  0.72483253  0.64553011  0.38238749    -0.20030
F2428       F  0.72031602  0.63036700  0.31503426    -0.22700
C2429       C  0.54126381  0.66911024  0.08460837    -0.05540
C2430       C  0.57300944  0.69329326  0.09111432     0.00390
C2431       C  0.59068494  0.69134390  0.12544952    -0.08180
C2432       C  0.57517605  0.66551424  0.15327264    -0.05560
C2433       C  0.54342864  0.64084950  0.14634923     0.00380
C2434       C  0.52638436  0.64226603  0.11053427    -0.08090
C2435       C  0.49327650  0.61522852  0.09773944     0.62290
H2436       H  0.52838788  0.67096116  0.05784379     0.12980
H2437       H  0.58802187  0.66414881  0.18034208     0.12990
C2438       C  0.62564910  0.71623808  0.13266459     0.62520
F2439       F  0.98584785  0.61831818  0.05664889    -0.22650
F2440       F  0.96997095  0.61532357  0.12308879    -0.19970
F2441       F  0.99211077  0.58611235  0.10059343    -0.19650
F2442       F  0.62907557  0.74640304  0.13368025    -0.19700
F2443       F  0.64417303  0.71452602  0.10061259    -0.20030
F2444       F  0.63724273  0.71158871  0.17018288    -0.22700
C2445       C  0.54178622  0.67124714  0.41135780    -0.05540
C2446       C  0.57441256  0.69416049  0.40740885     0.00390
C2447       C  0.59222047  0.69114566  0.37372349    -0.08180
C2448       C  0.57611755  0.66600238  0.34449347    -0.05560
C2449       C  0.54363829  0.64262126  0.34918560     0.00380
C2450       C  0.52622794  0.64502018  0.38394286    -0.08090
C2451       C  0.49179497  0.61966315  0.39404061     0.62290
H2452       H  0.52847537  0.67346246  0.43734554     0.12980
H2453       H  0.58915301  0.66401026  0.31804052     0.12990
C2454       C  0.62801186  0.71379729  0.36851004     0.62520
F2455       F  0.98301654  0.62333779  0.43422862    -0.22650
F2456       F  0.98836821  0.58952663  0.39163654    -0.19970
F2457       F  0.97075968  0.62182913  0.36649577    -0.19650
F2458       F  0.64455097  0.71010146  0.40154609    -0.19700
F2459       F  0.63419809  0.74494884  0.36749300    -0.20030
F2460       F  0.63967495  0.70795678  0.33173312    -0.22700
C2461       C  0.85439165  0.57405920  0.15808906    -0.05540
C2462       C  0.84936364  0.54332454  0.14971760     0.00390
C2463       C  0.83264691  0.52693174  0.11265817    -0.08180
C2464       C  0.82130948  0.54195550  0.08568984    -0.05560
C2465       C  0.82697315  0.57295454  0.09336234     0.00380
C2466       C  0.84387910  0.58950025  0.13021820    -0.08090
C2467       C  0.85082467  0.62311428  0.14041235     0.62290
H2468       H  0.86735198  0.58620623  0.18635309     0.12980
H2469       H  0.80854140  0.52974457  0.05734311     0.12990
C2470       C  0.82779563  0.49430960  0.10010220     0.62520
F2471       F  0.86361012  0.63275410  0.18031435    -0.22650
F2472       F  0.82274812  0.62445958  0.13839564    -0.19970
F2473       F  0.87281635  0.64437004  0.11215333    -0.19650
F2474       F  0.80554770  0.97112289  0.12610769    -0.19700
F2475       F  0.85655291  0.49430414  0.10257798    -0.20030
F2476       F  0.81656243  0.48606472  0.05930272    -0.22700
C2477       C  0.83197876  0.55584627  0.33775531    -0.05540
C2478       C  0.85442888  0.54735419  0.35159310     0.00390
C2479       C  0.86407949  0.55188562  0.39430539    -0.08180
C2480       C  0.85122081  0.56537335  0.42187242    -0.05560
C2481       C  0.82858802  0.57360919  0.40833383     0.00380
C2482       C  0.81873879  0.56899204  0.36568865    -0.08090
C2483       C  0.79511117  0.57873872  0.34977286     0.62290
H2484       H  0.82491045  0.55202245  0.30501029     0.12980
H2485       H  0.85820976  0.56897288  0.45465997     0.12990
C2486       C  0.88718053  0.54159851  0.41095793     0.62520
F2487       F  0.79072172  0.57461383  0.30674631    -0.22650
F2488       F  0.80646460  0.61060549  0.35903661    -0.19970
F2489       F  0.76562503  0.56051692  0.36874119    -0.19650
F2490       F  0.91671833  0.55897964  0.39188736    -0.19700
F2491       F  0.87519150  0.50949443  0.40267140    -0.20030
F2492       F  0.89173599  0.54629506  0.45390504    -0.22700
C2493       C  0.85546419  0.83860007  0.75686869     0.00810
C2494       C  0.83811302  0.85352297  0.75708841     0.00810
C2495       C  0.96796138  0.85218959  0.74622331     0.00810
C2496       C  0.93562831  0.83689100  0.74740620     0.00810
C2497       C  0.93156793  0.54729300  0.74712592     0.00810
C2498       C  0.96379735  0.56425171  0.74704348     0.00810
C2499       C  0.86724476  0.53292679  0.82177994     0.03370
C2500       C  0.89855130  0.55106012  0.80557472    -0.12780
C2501       C  0.91323242  0.53508745  0.78723573     0.00870
C2502       C  0.89824212  0.50206591  0.79360420    -0.11300
C2503       C  0.86462575  0.48566753  0.79070952     0.03360
C2504       C  0.84888251  0.50058843  0.80937440    -0.10720
H2505       H  0.91065888  0.57688364  0.80598877     0.08960
H2506       H  0.91072884  0.48980907  0.78316366     0.06490
H2507       H  0.82300903  0.48784568  0.81264269     0.06340
C2508       C  0.86482761  0.53029351  0.67739100     0.03370
C2509       C  0.89773669  0.54852272  0.68822625    -0.12780
C2510       C  0.91273780  0.53326988  0.70747167     0.00870
C2511       C  0.89643302  0.49990648  0.70479393    -0.11300
C2512       C  0.86325932  0.48501121  0.71178066     0.03360
C2513       C  0.84696493  0.49979852  0.69525800    -0.10720
H2514       H  0.91085628  0.57413546  0.68410098     0.08960
H2515       H  0.90897000  0.48771410  0.71501202     0.06490
H2516       H  0.82116633  0.48873291  0.69845103     0.06340
C2517       C  0.85137049  0.96636077  0.75125742     0.00810
C2518       C  0.83908100  0.93455781  0.75080430     0.00810
C2519       C  0.52968375  0.61418931  0.82055246     0.03370
C2520       C  0.54738397  0.59913500  0.80818903    -0.12780
C2521       C  0.53123634  0.56909649  0.78831596     0.00870
C2522       C  0.49777073  0.55245194  0.79220000    -0.11300
C2523       C  0.48294384  0.57085748  0.78638626     0.03360
C2524       C  0.49879380  0.60200676  0.80282556    -0.10720
H2525       H  0.57318158  0.61091028  0.81192933     0.08960
H2526       H  0.48494922  0.52776189  0.78202970     0.06490
H2527       H  0.48841365  0.61721835  0.79909107     0.06340
C2528       C  0.52955447  0.61264046  0.67453800     0.03370
C2529       C  0.54751838  0.59827557  0.68816260    -0.12780
C2530       C  0.53145498  0.56843740  0.70802040     0.00870
C2531       C  0.49798268  0.55140298  0.70344284    -0.11300
C2532       C  0.98272529  0.56959034  0.70788498     0.03360
C2533       C  0.49832585  0.60027898  0.69081677    -0.10720
H2534       H  0.57340315  0.61053302  0.68546422     0.08960
H2535       H  0.48530458  0.52693689  0.71402841     0.06490
H2536       H  0.98746500  0.61519983  0.69309100     0.06340
C2537       C  0.56212710  0.54865175  0.74892958     0.00810
C2538       C  0.54459171  0.56341439  0.74840937     0.00810
C2539       C  0.61153366  0.53299146  0.82202094     0.03370
C2540       C  0.59788475  0.55140101  0.80824397    -0.12780
C2541       C  0.56747085  0.53579444  0.78900750     0.00870
C2542       C  0.54968019  0.50254333  0.79330466    -0.11300
C2543       C  0.56731701  0.98665541  0.78915788     0.03360
C2544       C  0.59807814  0.50150040  0.80671751    -0.10720
H2545       H  0.61116369  0.57718637  0.81043149     0.08960
H2546       H  0.52504730  0.49037077  0.78234561     0.06490
H2547       H  0.61216684  0.98959280  0.80631454     0.06340
C2548       C  0.87056288  0.78687291  0.82125732     0.03370
C2549       C  0.85409552  0.80396863  0.81501920    -0.12780
C2550       C  0.87006118  0.83400527  0.79599837     0.00870
C2551       C  0.90373105  0.84959871  0.79652473    -0.11300
C2552       C  0.91749586  0.83046203  0.78786063     0.03360
C2553       C  0.90153042  0.79924944  0.80358127    -0.10720
H2554       H  0.82879481  0.79334498  0.82194979     0.08960
H2555       H  0.91658005  0.87416157  0.78630319     0.06490
H2556       H  0.91226501  0.78424408  0.80028722     0.06340
Fe2557     Fe  0.83025122  0.64198410  0.50250150     1.65780
Fe2558     Fe  0.75914217  0.64233413  0.49854910     1.73250
Fe2559     Fe  0.75934057  0.57183185  0.49878759     1.54410
O2560       O  0.78587953  0.56970959  0.94934953    -0.81430
O2561       O  0.72442283  0.61193056  0.54132562    -0.79740
O2562       O  0.83455445  0.61183901  0.95947532    -0.83940
O2563       O  0.83183097  0.61589685  0.55210835    -0.78790
O2564       O  0.72606763  0.56857847  0.95534728    -0.80570
O2565       O  0.78431975  0.67085051  0.54867219    -0.83310
C2566       C  0.81515026  0.58668484  0.56116540     0.97450
C2567       C  0.81540195  0.58609682  0.94038330     1.04890
O2568       O  0.78291131  0.61877542  0.99998296    -1.12290
O2569       O  0.79063830  0.67596378  0.95594651    -0.74730
O2570       O  0.83412269  0.67076432  0.95326175    -0.78210
O2571       O  0.78918363  0.56799817  0.54211564    -0.78900
C2572       C  0.81814168  0.68359943  0.94110545     0.96360
O2573       O  0.83272635  0.67538323  0.54581566    -0.76860
O2574       O  0.73125685  0.61660376  0.94793642    -0.82050
C2575       C  0.71694733  0.58526902  0.55808972     0.98980
C2576       C  0.71889908  0.58753468  0.93734970     1.04900
O2577       O  0.73015513  0.56910241  0.54785877    -0.77700
C2578       C  0.81315022  0.68320665  0.56105517     1.03200
C2579       C  0.86719926  0.78598986  0.68300850     0.03370
C2580       C  0.84978768  0.79972034  0.70060703    -0.12780
C2581       C  0.86639861  0.83098389  0.71661451     0.00870
C2582       C  0.89928071  0.84892803  0.70788636    -0.11300
C2583       C  0.91602940  0.83207882  0.70859736     0.03390
C2584       C  0.90074375  0.80173547  0.68976658    -0.10720
H2585       H  0.82392000  0.78574046  0.70357491     0.08960
H2586       H  0.91195938  0.87363508  0.71804064     0.06490
H2587       H  0.91444381  0.79000532  0.68311162     0.06340
C2588       C  0.61443869  0.53333723  0.68082250     0.03370
C2589       C  0.59963381  0.55130428  0.69224916    -0.12780
C2590       C  0.56863489  0.53560348  0.70946777     0.00870
C2591       C  0.55110845  0.50229603  0.70455246    -0.11300
C2592       C  0.56844377  0.48624267  0.71013459     0.03360
C2593       C  0.59980275  0.50118043  0.69396506    -0.10720
H2594       H  0.61242417  0.57703505  0.68972098     0.08960
H2595       H  0.52616266  0.49013047  0.71397893     0.06490
H2596       H  0.61327098  0.48866490  0.69365940     0.06340
C2597       C  0.53731142  0.87213005  0.81851815     0.03370
C2598       C  0.50690146  0.85219621  0.79912994    -0.12780
C2599       C  0.48806112  0.86520273  0.78506493     0.00870
C2600       C  0.49972102  0.89764672  0.79327483    -0.11300
C2601       C  0.53305517  0.91708642  0.79108849     0.03360
C2602       C  0.55110690  0.90540458  0.81117686    -0.10720
H2603       H  0.49836001  0.82706110  0.79386723     0.08960
H2604       H  0.48513314  0.90780913  0.78356686     0.06490
H2605       H  0.57531710  0.92245373  0.81898640     0.06340
C2606       C  0.53454798  0.87041035  0.67876630     0.03370
C2607       C  0.50162371  0.85176555  0.68774279    -0.12780
C2608       C  0.48568688  0.86624514  0.70639421     0.00870
C2609       C  0.50091312  0.89962556  0.70428202    -0.11300
C2610       C  0.53420266  0.91595158  0.71107119     0.03360
C2611       C  0.55149989  0.90207926  0.69413881    -0.10720
H2612       H  0.48904532  0.82620527  0.68263732     0.08960
H2613       H  0.48756899  0.91096168  0.71493955     0.06490
H2614       H  0.57749842  0.91488637  0.69496585     0.06340
Fe2615     Fe  0.57210469  0.76081546  0.00161097     1.65780
Fe2616     Fe  0.64265405  0.83155317  0.50279284     1.73250
Fe2617     Fe  0.64314253  0.76088933  0.50049254     1.54420
O2618       O  0.61274347  0.72660725  0.54240934    -0.81430
O2619       O  0.67253905  0.83532317  0.95449034    -0.79740
O2620       O  0.56982475  0.73231298  0.55072194    -0.83940
O2621       O  0.56916990  0.72736850  0.95825014    -0.78790
O2622       O  0.67120675  0.78617400  0.55070272    -0.80570
O2623       O  0.61240419  0.83480998  0.95858778    -0.83310
C2624       C  0.58813463  0.71994930  0.94002588     0.97450
C2625       C  0.58640361  0.71941903  0.56020908     1.04890
O2626       O  0.61934751  0.78446259  0.50161218    -1.12290
O2627       O  0.61618290  0.83414633  0.55148044    -0.74730
O2628       O  0.56795993  0.79081910  0.54495493    -0.78210
O2629       O  0.61751079  0.73278277  0.95002765    -0.78900
C2630       C  0.58697948  0.81767641  0.56155026     0.96360
O2631       O  0.56945203  0.78670631  0.95223742    -0.76860
O2632       O  0.67571580  0.83423951  0.54695943    -0.82050
C2633       C  0.68539895  0.81901384  0.94375634     0.98980
C2634       C  0.68365210  0.81497239  0.56257453     1.04900
O2635       O  0.67735954  0.79183338  0.95881428    -0.77700
C2636       C  0.58567042  0.81560048  0.94120890     1.03200
C2637       C  0.78656322  0.87000053  0.82192609     0.03370
C2638       C  0.80171376  0.85202813  0.81327522    -0.12780
C2639       C  0.83270565  0.86732235  0.79625497     0.00870
C2640       C  0.84977642  0.90076958  0.79859901    -0.11300
C2641       C  0.83188800  0.91594264  0.79065962     0.03360
C2642       C  0.80060371  0.90147865  0.80691045    -0.10720
H2643       H  0.78887907  0.82639127  0.81732590     0.08960
H2644       H  0.87470011  0.91288347  0.78908433     0.06490
H2645       H  0.78688822  0.91373032  0.80598933     0.06340
C2646       C  0.78838278  0.86985006  0.68286855     0.03370
C2647       C  0.80001521  0.85099228  0.70148197    -0.12780
C2648       C  0.83143408  0.86567289  0.71748215     0.00870
C2649       C  0.85109225  0.89837215  0.70994467    -0.11300
C2650       C  0.83565058  0.91646474  0.71062948     0.03360
C2651       C  0.80632294  0.90328097  0.68909180    -0.10720
H2652       H  0.78448425  0.82547270  0.70469326     0.08960
H2653       H  0.87570714  0.90974163  0.72088774     0.06490
H2654       H  0.79691766  0.91859538  0.68015974     0.06340
C2655       C  0.54573117  0.93531842  0.75073979     0.00810
C2656       C  0.56159025  0.96746196  0.75002821     0.00810
C2657       C  0.70375561  0.82280123  0.87110577    -0.05540
C2658       C  0.71141218  0.83267831  0.91301271     0.00390
C2659       C  0.74332222  0.85572576  0.92414600    -0.08180
C2660       C  0.76663455  0.86739474  0.89270143    -0.05560
C2661       C  0.75913796  0.85746549  0.85086419     0.00380
C2662       C  0.72720122  0.83490589  0.83946785    -0.08090
C2663       C  0.71656105  0.82684783  0.79418175     0.62290
H2664       H  0.67895212  0.80621166  0.86309334     0.12980
H2665       H  0.79129112  0.88452750  0.90101199     0.12990
C2666       C  0.75467134  0.86891182  0.96810949     0.62520
F2667       F  0.68767243  0.79853122  0.79089689    -0.22650
F2668       F  0.73890028  0.82378851  0.77025391    -0.19970
F2669       F  0.71229772  0.85095365  0.77832039    -0.19650
F2670       F  0.73044813  0.85737841  0.99739758    -0.19700
F2671       F  0.77754217  0.86128203  0.48093884    -0.20030
F2672       F  0.76852110  0.90177758  0.96751105    -0.22700
C2673       C  0.75770917  0.83216732  0.62621601    -0.05540
C2674       C  0.75903820  0.85444145  0.65594549     0.00390
C2675       C  0.73424473  0.86246674  0.65597754    -0.08180
C2676       C  0.71043485  0.84931708  0.62458342    -0.05560
C2677       C  0.70916220  0.82696445  0.59515113     0.00380
C2678       C  0.73314534  0.81795272  0.59609999    -0.08090
C2679       C  0.73383415  0.79431142  0.56483556     0.62290
H2680       H  0.77681031  0.82641432  0.62611818     0.12980
H2681       H  0.69200047  0.85604359  0.62368549     0.12990
C2682       C  0.73088219  0.88393951  0.68816429     0.62520
F2683       F  0.76183970  0.79293309  0.56792806    -0.22650
F2684       F  0.73184252  0.80306728  0.02420605    -0.19970
F2685       F  0.70846183  0.76407699  0.57240779    -0.19650
F2686       F  0.73886980  0.91278320  0.66976118    -0.19700
F2687       F  0.74977651  0.88950006  0.72329980    -0.20030
F2688       F  0.69934795  0.86981407  0.70158444    -0.22700
C2689       C  0.55575511  0.86845212  0.60983711    -0.05540
C2690       C  0.55020541  0.85758260  0.65129420     0.00390
C2691       C  0.55756403  0.83391031  0.66401250    -0.08180
C2692       C  0.56949688  0.82104161  0.63376930    -0.05560
C2693       C  0.57434139  0.83155455  0.59206045     0.00380
C2694       C  0.56776544  0.85581024  0.57980570    -0.08090
C2695       C  0.57275536  0.86771183  0.53487506     0.62290
H2696       H  0.54988977  0.88656622  0.60098049     0.12980
H2697       H  0.57514903  0.80274101  0.64237687     0.12990
C2698       C  0.55357894  0.82299674  0.70927796     0.62520
F2699       F  0.56365098  0.89050008  0.52928676    -0.22650
F2700       F  0.55465824  0.84249132  0.00789011    -0.19970
F2701       F  0.60481863  0.88126757  0.52434105    -0.19650
F2702       F  0.52147971  0.80697495  0.71997418    -0.19700
F2703       F  0.56980456  0.84916698  0.73550564    -0.20030
F2704       F  0.56571131  0.80269822  0.71586180    -0.22700
C2705       C  0.53045835  0.82911352  0.86734197    -0.05540
C2706       C  0.55220586  0.85747153  0.84644325     0.00390
C2707       C  0.58571502  0.87030048  0.85514587    -0.08180
C2708       C  0.59500007  0.85591498  0.88649153    -0.05560
C2709       C  0.57306438  0.82781942  0.90715161     0.00380
C2710       C  0.54009126  0.81324819  0.89571894    -0.08090
C2711       C  0.51457103  0.78132396  0.91328794     0.62290
H2712       H  0.50504790  0.81938176  0.86218205     0.12980
H2713       H  0.62015985  0.86672752  0.89484057     0.12990
C2714       C  0.61273571  0.89877098  0.83296658     0.62520
F2715       F  0.48420671  0.77211912  0.89783353    -0.22650
F2716       F  0.51336458  0.78319496  0.95653747    -0.19970
F2717       F  0.52156460  0.75773467  0.90204069    -0.19650
F2718       F  0.61888783  0.92662155  0.85337648    -0.19700
F2719       F  0.60538894  0.89953850  0.79120107    -0.20030
F2720       F  0.64084531  0.89734471  0.83373527    -0.22700
C2721       C  0.63980752  0.52981874  0.61583125    -0.05540
C2722       C  0.64322775  0.54674264  0.65321668     0.00390
C2723       C  0.67170392  0.57652331  0.65983785    -0.08180
C2724       C  0.69486235  0.58889622  0.62757656    -0.05560
C2725       C  0.69119283  0.57180069  0.59020771     0.00380
C2726       C  0.66308781  0.54182614  0.58412165    -0.08090
C2727       C  0.65632755  0.52387666  0.54275147     0.62290
H2728       H  0.61778230  0.50742677  0.61082446     0.12980
H2729       H  0.71649093  0.61176644  0.63208101     0.12990
C2730       C  0.67928548  0.59561780  0.70036019     0.62520
F2731       F  0.62616926  0.49692037  0.54174870    -0.22650
F2732       F  0.67866340  0.51427490  0.53567784    -0.19970
F2733       F  0.65773452  0.54380208  0.01096680    -0.19650
F2734       F  0.65960086  0.57805095  0.73298250    -0.19700
F2735       F  0.67608560  0.62218190  0.69397590    -0.20030
F2736       F  0.71057677  0.60560433  0.71246343    -0.22700
C2737       C  0.83132797  0.75759273  0.62380894    -0.05540
C2738       C  0.85056518  0.75675870  0.65642987     0.00390
C2739       C  0.85573109  0.73031276  0.65909416    -0.08180
C2740       C  0.84370865  0.70719863  0.62680867    -0.05560
C2741       C  0.82466257  0.70824757  0.59409864     0.00380
C2742       C  0.81802183  0.73373196  0.59271307    -0.08090
C2743       C  0.79831522  0.73679358  0.55755614     0.62290
H2744       H  0.82760978  0.77789732  0.62207346     0.12980
H2745       H  0.84857338  0.68759354  0.62773065     0.12990
C2746       C  0.87283253  0.72481994  0.69541501     0.62520
F2747       F  0.79924996  0.76585665  0.55893291    -0.22650
F2748       F  0.76658191  0.71306901  0.56104704    -0.19970
F2749       F  0.81017887  0.73435431  0.51895394    -0.19650
F2750       F  0.87516939  0.74290482  0.73044768    -0.19700
F2751       F  0.90325114  0.73192929  0.68288667    -0.20030
F2752       F  0.85600156  0.69312490  0.70721258    -0.22700
C2753       C  0.87666670  0.75681526  0.87896496    -0.05540
C2754       C  0.85672893  0.75747154  0.84722598     0.00390
C2755       C  0.82436157  0.73225972  0.84475815    -0.08180
C2756       C  0.81252216  0.70919019  0.87668378    -0.05560
C2757       C  0.83245820  0.70882096  0.90866910     0.00380
C2758       C  0.86541820  0.73275572  0.90937013    -0.08090
C2759       C  0.88865506  0.73394071  0.94279643     0.62290
H2760       H  0.90131040  0.77609367  0.88047085     0.12980
H2761       H  0.78755837  0.69053134  0.87582089     0.12990
C2762       C  0.80171733  0.72784393  0.80882141     0.62520
F2763       F  0.91817605  0.76162218  0.94065057    -0.22650
F2764       F  0.89391063  0.70848236  0.93738607    -0.19970
F2765       F  0.87623334  0.73276189  0.98236834    -0.19650
F2766       F  0.81767180  0.74542750  0.77390666    -0.19700
F2767       F  0.77966540  0.73650983  0.82207076    -0.20030
F2768       F  0.78529217  0.69610357  0.79652004    -0.22700
C2769       C  0.66652554  0.54430461  0.91368109    -0.05540
C2770       C  0.69323521  0.57412935  0.90506640     0.00390
C2771       C  0.69385208  0.59008354  0.86755741    -0.08180
C2772       C  0.66711636  0.57552636  0.84036254    -0.05560
C2773       C  0.63981142  0.54632433  0.85026354     0.00380
C2774       C  0.63902402  0.53093353  0.88838817    -0.08090
C2775       C  0.60870942  0.50184585  0.90434408     0.62290
H2776       H  0.66687439  0.53175838  0.94139137     0.12980
H2777       H  0.66706211  0.58722126  0.81160832     0.12990
C2778       C  0.72265216  0.62182772  0.85574214     0.62520
F2779       F  0.61148567  0.49592790  0.94616876    -0.22650
F2780       F  0.60280317  0.97494967  0.88161197    -0.19970
F2781       F  0.58278015  0.50679362  0.90099509    -0.19650
F2782       F  0.75042021  0.61998472  0.85868414    -0.19700
F2783       F  0.72483253  0.64553011  0.88238748    -0.20030
F2784       F  0.72031603  0.63036700  0.81503425    -0.22700
C2785       C  0.54126376  0.66911023  0.58460836    -0.05540
C2786       C  0.57300940  0.69329325  0.59111431     0.00390
C2787       C  0.59068490  0.69134389  0.62544950    -0.08180
C2788       C  0.57517602  0.66551423  0.65327262    -0.05560
C2789       C  0.54342861  0.64084949  0.64634922     0.00380
C2790       C  0.52638432  0.64226601  0.61053426    -0.08090
C2791       C  0.49327646  0.61522851  0.59773944     0.62290
H2792       H  0.52838783  0.67096115  0.55784379     0.12980
H2793       H  0.58802185  0.66414880  0.68034206     0.12990
C2794       C  0.62564907  0.71623806  0.63266455     0.62520
F2795       F  0.98584783  0.61831817  0.55664889    -0.22650
F2796       F  0.96997093  0.61532355  0.62308879    -0.19970
F2797       F  0.99211076  0.58611234  0.60059342    -0.19650
F2798       F  0.62907556  0.74640302  0.63368019    -0.19700
F2799       F  0.64417298  0.71452596  0.60061254    -0.20030
F2800       F  0.63724270  0.71158869  0.67018284    -0.22700
C2801       C  0.54178621  0.67124712  0.91135781    -0.05540
C2802       C  0.57441256  0.69416047  0.90740886     0.00390
C2803       C  0.59222046  0.69114564  0.87372351    -0.08180
C2804       C  0.57611754  0.66600237  0.84449349    -0.05560
C2805       C  0.54363829  0.64262125  0.84918561     0.00380
C2806       C  0.52622793  0.64502017  0.88394287    -0.08090
C2807       C  0.49179496  0.61966314  0.89404061     0.62290
H2808       H  0.52847537  0.67346245  0.93734555     0.12980
H2809       H  0.58915301  0.66401024  0.81804053     0.12990
C2810       C  0.62801186  0.71379726  0.86851007     0.62520
F2811       F  0.98301654  0.62333780  0.93422862    -0.22650
F2812       F  0.98836820  0.58952663  0.89163653    -0.19970
F2813       F  0.97075968  0.62182914  0.86649576    -0.19650
F2814       F  0.64455096  0.71010143  0.90154612    -0.19700
F2815       F  0.63419809  0.74494881  0.86749303    -0.20030
F2816       F  0.63967495  0.70795675  0.83173315    -0.22700
C2817       C  0.85439164  0.57405919  0.65808907    -0.05540
C2818       C  0.84936363  0.54332454  0.64971761     0.00390
C2819       C  0.83264691  0.52693173  0.61265817    -0.08180
C2820       C  0.82130948  0.54195550  0.58568984    -0.05560
C2821       C  0.82697315  0.57295453  0.59336234     0.00380
C2822       C  0.84387909  0.58950025  0.63021820    -0.08090
C2823       C  0.85082466  0.62311428  0.64041235     0.62290
H2824       H  0.86735197  0.58620622  0.68635310     0.12980
H2825       H  0.80854140  0.52974456  0.55734310     0.12990
C2826       C  0.82779563  0.49430960  0.60010221     0.62520
F2827       F  0.86361011  0.63275410  0.68031436    -0.22650
F2828       F  0.82274811  0.62445957  0.63839563    -0.19970
F2829       F  0.87281634  0.64437003  0.61215333    -0.19650
F2830       F  0.80554769  0.97112287  0.62610766    -0.19700
F2831       F  0.85655291  0.49430414  0.60257799    -0.20030
F2832       F  0.81656243  0.48606472  0.55930272    -0.22700
C2833       C  0.83197876  0.55584627  0.83775532    -0.05540
C2834       C  0.85442888  0.54735419  0.85159311     0.00390
C2835       C  0.86407948  0.55188561  0.89430540    -0.08180
C2836       C  0.85122080  0.56537334  0.92187243    -0.05560
C2837       C  0.82858802  0.57360920  0.90833383     0.00380
C2838       C  0.81873880  0.56899205  0.86568866    -0.08090
C2839       C  0.79511118  0.57873874  0.84977286     0.62290
H2840       H  0.82491046  0.55202246  0.80501030     0.12980
H2841       H  0.85820975  0.56897288  0.95465999     0.12990
C2842       C  0.88718052  0.54159851  0.91095794     0.62520
F2843       F  0.79072174  0.57461386  0.80674631    -0.22650
F2844       F  0.80646462  0.61060551  0.85903662    -0.19970
F2845       F  0.76562503  0.56051695  0.86874118    -0.19650
F2846       F  0.91671833  0.55897964  0.89188737    -0.19700
F2847       F  0.87519149  0.50949443  0.90267141    -0.20030
F2848       F  0.89173598  0.54629506  0.95390505    -0.22700
loop_ 
_geom_bond_atom_site_label_1 
_geom_bond_atom_site_label_2 
_geom_bond_distance 
_geom_bond_site_symmetry_2 
_ccdc_geom_bond_type 
C1            C2   1.346       .  D
C1           C58   1.501       .  S
C1           C89   1.497       .  S
C2          C147   1.493       .  S
C2          C156   1.495       .  S
C3            C4   1.348       .  D
C3         C1531   1.498       .  S
C3         C1540   1.494       .  S
C4           C60   1.500       .  S
C4           C91   1.499       .  S
C5            C6   1.343       .  D
C5            C9   1.499       .  S
C5           C18   1.501       .  S
C6           C40   1.489       .  S
C6         C1455   1.490       .  S
C7            C8   1.410       .  A
C7           C12   1.413       .  A
C7          C342   1.478       .  S
C8            C9   1.403       .  A
C8           H13   1.083       .  S
C9           C10   1.402       .  A
C10          C11   1.403   1_545  A
C10          H14   1.082   1_545  S
C11         C737   1.499       .  S
C11          C12   1.407   1_565  A
C12          H15   1.083   1_545  S
C16          C17   1.416       .  A
C16          C21   1.409   1_545  A
C16         C326   1.482       .  S
C17          C18   1.404       .  A
C17          H22   1.083       .  S
C18          C19   1.401   1_545  A
C19          C20   1.402       .  A
C19          H23   1.082       .  S
C20         C737   1.491       .  S
C20          C21   1.400       .  A
C21          H24   1.083       .  S
C25          C26   1.344       .  D
C25         C723   1.499       .  S
C25         C732   1.491       .  S
C26         C149   1.499       .  S
C26         C158   1.507       .  S
C27          C28   1.420       .  A
C27          C32   1.412   1_455  A
C27         C313   1.495       .  S
C28          C29   1.406       .  A
C28          H33   1.082       .  S
C29          C46   1.507       .  S
C29          C30   1.400   1_455  A
C30          C31   1.401       .  A
C30          H34   1.082       .  S
C31        C1430   1.490       .  S
C31          C32   1.403       .  A
C32          H35   1.081       .  S
C36          C37   1.419       .  A
C36          C41   1.409   1_455  A
C36         C297   1.490       .  S
C37          C38   1.407       .  A
C37          H42   1.082       .  S
C38          C46   1.506       .  S
C38          C39   1.402   1_455  A
C39        C1464   1.403       .  A
C39          H43   1.082       .  S
C40        C1463   1.403       .  A
C40        C1465   1.400       .  A
C41        C1464   1.400       .  A
C41        H1468   1.082       .  S
H44        C1465   1.082       .  S
C45          C46   1.347       .  D
C45          C49   1.500       .  S
C45          C98   1.503       .  S
C47          C48   1.414       .  A
C47          C52   1.408       .  A
C47         C281   1.480       .  S
C48          C49   1.406       .  A
C48          H53   1.083       .  S
C49          C50   1.403       .  A
C50         C763   1.402   1_545  A
C50          H54   1.083   1_545  S
C51         C164   1.490       .  S
C51         C762   1.402       .  A
C51         C764   1.399       .  A
C52         C763   1.399   1_545  A
C52         H767   1.083   1_545  S
H55         C764   1.083       .  S
C56          C57   1.414       .  A
C56          C61   1.416       .  A
C56         C262   1.490       .  S
C57          C58   1.402       .  A
C57          H62   1.081       .  S
C58          C59   1.404       .  A
C59          C60   1.404       .  A
C59          H63   1.082       .  S
C60          C61   1.404       .  A
C61          H64   1.083       .  S
Fe65         O81   2.074       .  S
Fe65         O71   2.053       .  S
Fe65        O434   2.049   1_554  S
Fe65        O426   2.077   1_554  S
Fe65        O432   1.973   1_554  S
Fe66         O69   2.094   1_556  S
Fe66         O73   2.055   1_556  S
Fe66        O433   2.086       .  S
Fe66        O438   2.063       .  S
Fe66        O432   1.973       .  S
Fe67         O85   2.059   1_556  S
Fe67         O79   2.064   1_556  S
Fe67        O428   2.059       .  S
Fe67        O424   2.059       .  S
Fe67        O432   1.968       .  S
O68        Fe423   2.059       .  S
O68          C75   1.267       .  A
O69          C83   1.274       .  A
O70        Fe421   2.077       .  S
O70          C75   1.271       .  A
O71          C74   1.264       .  A
O72        Fe423   2.059       .  S
O72          C84   1.268       .  A
O73          C86   1.266       .  A
C74         C329   1.483       .  S
C74          O79   1.269       .  A
C75         C345   1.476       .  S
O76        Fe421   1.973       .  S
O76        Fe422   1.973       .  S
O76        Fe423   1.968       .  S
O77        Fe422   2.086       .  S
O77          C80   1.273       .  A
O78        Fe421   2.049       .  S
O78          C80   1.265       .  A
C80         C265   1.486       .  S
O81          C86   1.270       .  A
O82        Fe422   2.063       .  S
O82          C84   1.266       .  A
C83         C233   1.486       .  S
C83          O85   1.268       .  A
C84         C278   1.481       .  S
C86         C249   1.481       .  S
C87          C88   1.414       .  A
C87          C92   1.414       .  A
C87         C246   1.487       .  S
C88          C89   1.403       .  A
C88          H93   1.084       .  S
C89          C90   1.401       .  A
C90          C91   1.401       .  A
C90          H94   1.083       .  S
C91          C92   1.402       .  A
C92          H95   1.081       .  S
C96          C97   1.415       .  A
C96         C101   1.416       .  A
C96         C230   1.490       .  S
C97          C98   1.405       .  A
C97         H102   1.082       .  S
C98          C99   1.404       .  A
C99         C100   1.404   1_545  A
C99         H103   1.083   1_545  S
C100        C876   1.501       .  S
C100        C101   1.406   1_565  A
C101        H104   1.083   1_545  S
C105        C106   1.427       .  A
C105        C110   1.423       .  A
C105        C214   1.523       .  S
C106        C107   1.409   1_455  A
C106        H111   1.083   1_455  S
C107       C1427   1.498       .  S
C107        C108   1.400       .  A
C108        C109   1.398   1_655  A
C108        H112   1.083       .  S
C109        C163   1.510       .  S
C109        C110   1.404       .  A
C110        H113   1.065       .  S
C114        C115   1.407       .  A
C114        C119   1.412       .  A
C114        C198   1.473       .  S
C115        C116   1.398   1_455  A
C115        H120   1.082   1_455  S
C116       C1427   1.494       .  S
C116        C117   1.403   1_655  A
C117        C118   1.403       .  A
C117        H121   1.083   1_455  S
C118        C163   1.499       .  S
C118        C119   1.407       .  A
C119        H122   1.083       .  S
Fe123       O139   2.059       .  S
Fe123       O129   2.069       .  S
Fe123       O492   2.075       .  S
Fe123       O484   2.058       .  S
Fe123       O490   1.968       .  S
Fe124       O135   2.047       .  S
Fe124       O140   2.076       .  S
Fe124       O483   2.050   1_554  S
Fe124       O487   2.085   1_554  S
Fe124       O134   1.974       .  S
Fe125       O130   2.050       .  S
Fe125       O126   2.069       .  S
Fe125       O499   2.068   1_554  S
Fe125       O493   2.062   1_554  S
Fe125       O134   1.974       .  S
O126        C133   1.268       .  A
O127       Fe480   2.050       .  S
O127        C141   1.265       .  A
O128       Fe479   2.058       .  S
O128        C133   1.269       .  A
O129        C132   1.271       .  A
O130        C142   1.266       .  A
O131       Fe480   2.085       .  S
O131        C144   1.274       .  A
C132        C310   1.494       .  S
C132        O137   1.266       .  A
C133        C294   1.478       .  S
O134       Fe479   1.968       .  S
O135        C138   1.263       .  A
O136       Fe479   2.075       .  S
O136        C138   1.269       .  A
O137       Fe481   2.062       .  S
C138        C201   1.469       .  S
O139        C144   1.266       .  A
O140        C142   1.272       .  A
C141        C166   1.464       .  S
C141        O143   1.268       .  A
C142        C185   1.483       .  S
O143       Fe481   2.068       .  S
C144        C217   1.502       .  S
C145        C146   1.409       .  A
C145        C150   1.409       .  A
C145        C169   1.471       .  S
C146        C147   1.402       .  A
C146        H151   1.083       .  S
C147        C148   1.403       .  A
C148        C149   1.403       .  A
C148        H152   1.083       .  S
C149        C150   1.405       .  A
C150        H153   1.083       .  S
C154        C155   1.417       .  A
C154        C159   1.415       .  A
C154        C182   1.491       .  S
C155        C156   1.404       .  A
C155        H160   1.083       .  S
C156        C157   1.402       .  A
C157        C158   1.400       .  A
C157        H161   1.083       .  S
C158        C159   1.401       .  A
C159        H162   1.081       .  S
C163        C164   1.348       .  D
C164        C812   1.501       .  S
C165        C166   1.401       .  A
C165        C170   1.406       .  A
C165        H172   1.083       .  S
C166        C167   1.418       .  A
C167        C168   1.397       .  A
C167        C174   1.519       .  S
C168        C169   1.398       .  A
C168        H173   1.086       .  S
C169        C170   1.416       .  A
C170        C171   1.513       .  S
C171        F175   1.385       .  S
C171        F176   1.382       .  S
C171        F177   1.378       .  S
C174        F178   1.377       .  S
C174        F180   1.384       .  S
C174        F535   1.384       .  S
F179        C530   1.384       .  S
C181        C182   1.406       .  A
C181        C186   1.403       .  A
C181        H188   1.083       .  S
C182        C183   1.424       .  A
C183        C184   1.407       .  A
C183        C190   1.518       .  S
C184        C185   1.403       .  A
C184        H189   1.085       .  S
C185        C186   1.420       .  A
C186        C187   1.523       .  S
C187        F191   1.383       .  S
C187        F193   1.382       .  S
C187        F548   1.382       .  S
C190        F194   1.383       .  S
C190        F195   1.379       .  S
C190        F196   1.384       .  S
F192        C543   1.382       .  S
C197        C198   1.400       .  A
C197        C202   1.401       .  A
C197        H204   1.083       .  S
C198        C199   1.416       .  A
C199        C200   1.410       .  A
C199        C206   1.518       .  S
C200        C201   1.403       .  A
C200        H205   1.083       .  S
C201        C202   1.414       .  A
C202        C203   1.520       .  S
C203        F207   1.384       .  S
C203        F209   1.383       .  S
C203        F564   1.383       .  S
C206        F210   1.381       .  S
C206        F211   1.382       .  S
C206        F212   1.384       .  S
F208        C559   1.383       .  S
C213        C214   1.414       .  A
C213        C218   1.407       .  A
C213        H220   1.079       .  S
C214        C215   1.434       .  A
C215        C216   1.413       .  A
C215        C222   1.520       .  S
C216        C217   1.405       .  A
C216        H221   1.083       .  S
C217        C218   1.422       .  A
C218        C219   1.525       .  S
C219        F223   1.385   1_455  S
C219        F224   1.383       .  S
C219        F225   1.384       .  S
C222        F226   1.383       .  S
C222        F227   1.382       .  S
C222        F228   1.386       .  S
C229        C230   1.402       .  A
C229        C234   1.403       .  A
C229        H236   1.083       .  S
C230        C231   1.423       .  A
C231        C232   1.413       .  A
C231        C238   1.516       .  S
C232        C233   1.404       .  A
C232        H237   1.085       .  S
C233        C234   1.417       .  A
C234        C235   1.516       .  S
C235        F239   1.385   1_545  S
C235        F240   1.382       .  S
C235        F597   1.380       .  S
C238        F242   1.381       .  S
C238        F243   1.383       .  S
C238        F244   1.384       .  S
F241        C591   1.380       .  S
C245        C246   1.405       .  A
C245        C250   1.404       .  A
C245        H252   1.083       .  S
C246        C247   1.421       .  A
C247        C248   1.408       .  A
C247        C254   1.518       .  S
C248        C249   1.404       .  A
C248        H253   1.083       .  S
C249        C250   1.418       .  A
C250        C251   1.521       .  S
C251        F255   1.383       .  S
C251        F256   1.383       .  S
C251        F257   1.384       .  S
C254        F258   1.382       .  S
C254        F259   1.383       .  S
C254        F260   1.384       .  S
C261        C262   1.404       .  A
C261        C266   1.404       .  A
C261        H268   1.083       .  S
C262        C263   1.422       .  A
C263        C264   1.409       .  A
C263        C270   1.518       .  S
C264        C265   1.405       .  A
C264        H269   1.084       .  S
C265        C266   1.422       .  A
C266        C267   1.523       .  S
C267        F271   1.385       .  S
C267        F272   1.383       .  S
C267        F273   1.383       .  S
C270        F274   1.382       .  S
C270        F275   1.383       .  S
C270        F276   1.384       .  S
C277        C278   1.401       .  A
C277        C282   1.398       .  A
C277        H284   1.079       .  S
C278        C279   1.418       .  A
C279        C280   1.410       .  A
C279        C286   1.518       .  S
C280        C281   1.405       .  A
C280        H285   1.080       .  S
C281        C282   1.419       .  A
C282        C283   1.525       .  S
C283        F287   1.385   1_545  S
C283        F289   1.384       .  S
C283       F1000   1.380   1_545  S
C286        F290   1.383       .  S
C286        F291   1.382       .  S
C286        F292   1.385       .  S
F288        C995   1.380       .  S
C293        C294   1.399       .  A
C293        C298   1.402       .  A
C293        H300   1.083       .  S
C294        C295   1.417       .  A
C295        C296   1.410       .  A
C295        C302   1.519       .  S
C296        C297   1.408       .  A
C296        H301   1.082       .  S
C297        C298   1.426       .  A
C298        C299   1.526   1_455  S
C299       F1727   1.385       .  S
C299       F1728   1.381       .  S
C299       F1729   1.383       .  S
C302        F306   1.383       .  S
C302        F307   1.383       .  S
C302        F308   1.385       .  S
F303       C1723   1.385       .  S
F304       C1723   1.381       .  S
F305       C1723   1.383       .  S
C309        C310   1.404       .  A
C309        C314   1.404       .  A
C309        H316   1.082       .  S
C310        C311   1.423       .  A
C311        C312   1.411       .  A
C311        C318   1.520       .  S
C312        C313   1.407       .  A
C312        H317   1.081       .  S
C313        C314   1.425       .  A
C314        C315   1.526   1_455  S
C315       F1743   1.385       .  S
C315       F1744   1.383       .  S
C315       F1745   1.381       .  S
C318        F322   1.384       .  S
C318        F323   1.382       .  S
C318        F324   1.385       .  S
F319       C1739   1.385       .  S
F320       C1739   1.383       .  S
F321       C1739   1.381       .  S
C325        C326   1.404       .  A
C325        C330   1.408       .  A
C325        H332   1.083       .  S
C326        C327   1.421       .  A
C327        C328   1.401       .  A
C327        C334   1.525   1_545  S
C328        C329   1.402       .  A
C328        H333   1.083       .  S
C329        C330   1.421       .  A
C330        C331   1.519       .  S
C331        F335   1.385       .  S
C331        F336   1.383       .  S
C331        F337   1.383       .  S
C334        F339   1.383       .  S
C334        F340   1.385       .  S
C334       F1050   1.381       .  S
F338       C1046   1.381       .  S
C341        C342   1.403       .  A
C341        C346   1.412       .  A
C341        H348   1.083       .  S
C342        C343   1.417       .  A
C343        C344   1.403       .  A
C343        C350   1.520       .  S
C344        C345   1.399       .  A
C344        H349   1.083       .  S
C345        C346   1.418       .  A
C346        C347   1.517       .  S
C347        F351   1.384       .  S
C347        F352   1.383       .  S
C347        F353   1.382       .  S
C350        F354   1.381       .  S
C350        F355   1.383       .  S
C350        F356   1.385       .  S
C357        C358   1.346       .  D
C357        C414   1.501       .  S
C357        C445   1.497       .  S
C358        C503   1.493       .  S
C358        C512   1.495       .  S
C359        C360   1.348       .  D
C359       C1887   1.498       .  S
C359       C1896   1.494       .  S
C360        C416   1.500       .  S
C360        C447   1.499       .  S
C361        C362   1.343       .  D
C361        C365   1.499       .  S
C361        C374   1.501       .  S
C362       C1811   1.490       .  S
C362        C396   1.489       .  S
C363        C364   1.410       .  A
C363        C368   1.413       .  A
C363        C698   1.478       .  S
C364        C365   1.403       .  A
C364        H369   1.083       .  S
C365        C366   1.402       .  A
C366        C367   1.403   1_545  A
C366        H370   1.082   1_545  S
C367       C1093   1.499       .  S
C367        C368   1.407   1_565  A
C368        H371   1.083   1_545  S
C372        C373   1.416       .  A
C372        C377   1.409   1_545  A
C372        C682   1.482       .  S
C373        C374   1.404       .  A
C373        H378   1.083       .  S
C374        C375   1.401   1_545  A
C375        C376   1.402       .  A
C375        H379   1.082       .  S
C376       C1093   1.491       .  S
C376        C377   1.400       .  A
C377        H380   1.083       .  S
C381        C382   1.344       .  D
C381       C1079   1.499       .  S
C381       C1088   1.491       .  S
C382        C505   1.499       .  S
C382        C514   1.507       .  S
C383        C384   1.420       .  A
C383        C388   1.412   1_455  A
C383        C669   1.495       .  S
C384        C385   1.406       .  A
C384        H389   1.082       .  S
C385        C402   1.507       .  S
C385        C386   1.400   1_455  A
C386        C387   1.401       .  A
C386        H390   1.082       .  S
C387       C1786   1.490       .  S
C387        C388   1.403       .  A
C388        H391   1.081       .  S
C392        C393   1.419       .  A
C392        C397   1.409   1_455  A
C392        C653   1.490       .  S
C393        C394   1.407       .  A
C393        H398   1.082       .  S
C394        C402   1.506       .  S
C394        C395   1.402   1_455  A
C395       C1820   1.403       .  A
C395        H399   1.082       .  S
C396       C1819   1.403       .  A
C396       C1821   1.400       .  A
C397       C1820   1.400       .  A
C397       H1824   1.082       .  S
H400       C1821   1.082       .  S
C401        C402   1.347       .  D
C401        C405   1.500       .  S
C401        C454   1.503       .  S
C403        C404   1.414       .  A
C403        C408   1.408       .  A
C403        C637   1.480       .  S
C404        C405   1.406       .  A
C404        H409   1.083       .  S
C405        C406   1.403       .  A
C406       C1119   1.402   1_545  A
C406        H410   1.083   1_545  S
C407        C520   1.490       .  S
C407       C1118   1.402       .  A
C407       C1120   1.399       .  A
C408       C1119   1.399   1_545  A
C408       H1123   1.083   1_545  S
H411       C1120   1.083       .  S
C412        C413   1.414       .  A
C412        C417   1.416       .  A
C412        C618   1.490       .  S
C413        C414   1.402       .  A
C413        H418   1.081       .  S
C414        C415   1.404       .  A
C415        C416   1.404       .  A
C415        H419   1.082       .  S
C416        C417   1.404       .  A
C417        H420   1.083       .  S
Fe421       O437   2.074       .  S
Fe421       O427   2.053       .  S
Fe422       O425   2.094       .  S
Fe422       O429   2.055       .  S
Fe423       O441   2.059       .  S
Fe423       O435   2.064       .  S
O424        C431   1.267       .  A
O425        C439   1.274       .  A
O426        C431   1.271       .  A
O427        C430   1.264       .  A
O428        C440   1.268       .  A
O429        C442   1.266       .  A
C430        C685   1.483       .  S
C430        O435   1.269       .  A
C431        C701   1.476       .  S
O433        C436   1.273       .  A
O434        C436   1.265       .  A
C436        C621   1.486       .  S
O437        C442   1.270       .  A
O438        C440   1.266       .  A
C439        C589   1.486       .  S
C439        O441   1.268       .  A
C440        C634   1.481       .  S
C442        C605   1.481       .  S
C443        C444   1.414       .  A
C443        C448   1.414       .  A
C443        C602   1.487       .  S
C444        C445   1.403       .  A
C444        H449   1.084       .  S
C445        C446   1.401       .  A
C446        C447   1.401       .  A
C446        H450   1.083       .  S
C447        C448   1.402       .  A
C448        H451   1.081       .  S
C452        C453   1.415       .  A
C452        C457   1.416       .  A
C452        C586   1.490       .  S
C453        C454   1.405       .  A
C453        H458   1.082       .  S
C454        C455   1.404       .  A
C455        C456   1.404   1_545  A
C455        H459   1.083   1_545  S
C456       C1232   1.501       .  S
C456        C457   1.406   1_565  A
C457        H460   1.083   1_545  S
C461        C462   1.427       .  A
C461        C466   1.423       .  A
C461        C570   1.523       .  S
C462        C463   1.409   1_455  A
C462        H467   1.083   1_455  S
C463       C1783   1.498       .  S
C463        C464   1.400       .  A
C464        C465   1.398   1_655  A
C464        H468   1.083       .  S
C465        C519   1.510       .  S
C465        C466   1.404       .  A
C466        H469   1.065       .  S
C470        C471   1.407       .  A
C470        C475   1.412       .  A
C470        C554   1.473       .  S
C471        C472   1.398   1_455  A
C471        H476   1.082   1_455  S
C472       C1783   1.494       .  S
C472        C473   1.403   1_655  A
C473        C474   1.403       .  A
C473        H477   1.083   1_455  S
C474        C519   1.499       .  S
C474        C475   1.407       .  A
C475        H478   1.083       .  S
Fe479       O495   2.059   1_554  S
Fe479       O485   2.069   1_554  S
Fe480       O491   2.047       .  S
Fe480       O496   2.076       .  S
Fe480       O490   1.974       .  S
Fe481       O486   2.050       .  S
Fe481       O482   2.069       .  S
Fe481       O490   1.974       .  S
O482        C489   1.268       .  A
O483        C497   1.265       .  A
O484        C489   1.269       .  A
O485        C488   1.271       .  A
O486        C498   1.266       .  A
O487        C500   1.274       .  A
C488        C666   1.494       .  S
C488        O493   1.266       .  A
C489        C650   1.478       .  S
O491        C494   1.263       .  A
O492        C494   1.269       .  A
C494        C557   1.469       .  S
O495        C500   1.266       .  A
O496        C498   1.272       .  A
C497        C522   1.464       .  S
C497        O499   1.268       .  A
C498        C541   1.483       .  S
C500        C573   1.502       .  S
C501        C502   1.409       .  A
C501        C506   1.409       .  A
C501        C525   1.471       .  S
C502        C503   1.402       .  A
C502        H507   1.083       .  S
C503        C504   1.403       .  A
C504        C505   1.403       .  A
C504        H508   1.083       .  S
C505        C506   1.405       .  A
C506        H509   1.083       .  S
C510        C511   1.417       .  A
C510        C515   1.415       .  A
C510        C538   1.491       .  S
C511        C512   1.404       .  A
C511        H516   1.083       .  S
C512        C513   1.402       .  A
C513        C514   1.400       .  A
C513        H517   1.083       .  S
C514        C515   1.401       .  A
C515        H518   1.081       .  S
C519        C520   1.348       .  D
C520       C1168   1.501       .  S
C521        C522   1.401       .  A
C521        C526   1.406       .  A
C521        H528   1.083       .  S
C522        C523   1.418       .  A
C523        C524   1.397       .  A
C523        C530   1.519       .  S
C524        C525   1.398       .  A
C524        H529   1.086       .  S
C525        C526   1.416       .  A
C526        C527   1.513       .  S
C527        F531   1.385       .  S
C527        F532   1.382       .  S
C527        F533   1.378       .  S
C530        F534   1.377       .  S
C530        F536   1.384       .  S
C537        C538   1.406       .  A
C537        C542   1.403       .  A
C537        H544   1.083       .  S
C538        C539   1.424       .  A
C539        C540   1.407       .  A
C539        C546   1.518       .  S
C540        C541   1.403       .  A
C540        H545   1.085       .  S
C541        C542   1.420       .  A
C542        C543   1.523       .  S
C543        F547   1.383       .  S
C543        F549   1.382       .  S
C546        F550   1.383       .  S
C546        F551   1.379       .  S
C546        F552   1.384       .  S
C553        C554   1.400       .  A
C553        C558   1.401       .  A
C553        H560   1.083       .  S
C554        C555   1.416       .  A
C555        C556   1.410       .  A
C555        C562   1.518       .  S
C556        C557   1.403       .  A
C556        H561   1.083       .  S
C557        C558   1.414       .  A
C558        C559   1.520       .  S
C559        F563   1.384       .  S
C559        F565   1.383       .  S
C562        F566   1.381       .  S
C562        F567   1.382       .  S
C562        F568   1.384       .  S
C569        C570   1.414       .  A
C569        C574   1.407       .  A
C569        H576   1.079       .  S
C570        C571   1.434       .  A
C571        C572   1.413       .  A
C571        C578   1.520       .  S
C572        C573   1.405       .  A
C572        H577   1.083       .  S
C573        C574   1.422       .  A
C574        C575   1.525       .  S
C575        F579   1.385   1_455  S
C575        F580   1.383       .  S
C575        F581   1.384       .  S
C578        F582   1.383       .  S
C578        F583   1.382       .  S
C578        F584   1.386       .  S
C585        C586   1.402       .  A
C585        C590   1.403       .  A
C585        H592   1.083       .  S
C586        C587   1.423       .  A
C587        C588   1.413       .  A
C587        C594   1.516       .  S
C588        C589   1.404       .  A
C588        H593   1.085       .  S
C589        C590   1.417       .  A
C590        C591   1.516       .  S
C591        F595   1.385   1_545  S
C591        F596   1.382       .  S
C594        F598   1.381       .  S
C594        F599   1.383       .  S
C594        F600   1.384       .  S
C601        C602   1.405       .  A
C601        C606   1.404       .  A
C601        H608   1.083       .  S
C602        C603   1.421       .  A
C603        C604   1.408       .  A
C603        C610   1.518       .  S
C604        C605   1.404       .  A
C604        H609   1.083       .  S
C605        C606   1.418       .  A
C606        C607   1.521       .  S
C607        F611   1.383       .  S
C607        F612   1.383       .  S
C607        F613   1.384       .  S
C610        F614   1.382       .  S
C610        F615   1.383       .  S
C610        F616   1.384       .  S
C617        C618   1.404       .  A
C617        C622   1.404       .  A
C617        H624   1.083       .  S
C618        C619   1.422       .  A
C619        C620   1.409       .  A
C619        C626   1.518       .  S
C620        C621   1.405       .  A
C620        H625   1.084       .  S
C621        C622   1.422       .  A
C622        C623   1.523       .  S
C623        F627   1.385       .  S
C623        F628   1.383       .  S
C623        F629   1.383       .  S
C626        F630   1.382       .  S
C626        F631   1.383       .  S
C626        F632   1.384       .  S
C633        C634   1.401       .  A
C633        C638   1.398       .  A
C633        H640   1.079       .  S
C634        C635   1.418       .  A
C635        C636   1.410       .  A
C635        C642   1.518       .  S
C636        C637   1.405       .  A
C636        H641   1.080       .  S
C637        C638   1.419       .  A
C638        C639   1.525       .  S
C639        F643   1.385   1_545  S
C639       F1356   1.380   1_545  S
C639        F645   1.384       .  S
C642        F646   1.383       .  S
C642        F647   1.382       .  S
C642        F648   1.385       .  S
F644       C1351   1.380       .  S
C649        C650   1.399       .  A
C649        C654   1.402       .  A
C649        H656   1.083       .  S
C650        C651   1.417       .  A
C651        C652   1.410       .  A
C651        C658   1.519       .  S
C652        C653   1.408       .  A
C652        H657   1.082       .  S
C653        C654   1.426       .  A
C654        C655   1.526   1_455  S
C655       F2083   1.385       .  S
C655       F2084   1.381       .  S
C655       F2085   1.383       .  S
C658        F662   1.383       .  S
C658        F663   1.383       .  S
C658        F664   1.385       .  S
F659       C2079   1.385       .  S
F660       C2079   1.381       .  S
F661       C2079   1.383       .  S
C665        C666   1.404       .  A
C665        C670   1.404       .  A
C665        H672   1.082       .  S
C666        C667   1.423       .  A
C667        C668   1.411       .  A
C667        C674   1.520       .  S
C668        C669   1.407       .  A
C668        H673   1.081       .  S
C669        C670   1.425       .  A
C670        C671   1.526   1_455  S
C671       F2099   1.385       .  S
C671       F2100   1.383       .  S
C671       F2101   1.381       .  S
C674        F678   1.384       .  S
C674        F679   1.382       .  S
C674        F680   1.385       .  S
F675       C2095   1.385       .  S
F676       C2095   1.383       .  S
F677       C2095   1.381       .  S
C681        C682   1.404       .  A
C681        C686   1.408       .  A
C681        H688   1.083       .  S
C682        C683   1.421       .  A
C683        C684   1.401       .  A
C683        C690   1.525   1_545  S
C684        C685   1.402       .  A
C684        H689   1.083       .  S
C685        C686   1.421       .  A
C686        C687   1.519       .  S
C687        F691   1.385       .  S
C687        F692   1.383       .  S
C687        F693   1.383       .  S
C690       F1406   1.381       .  S
C690        F695   1.383       .  S
C690        F696   1.385       .  S
F694       C1402   1.381       .  S
C697        C698   1.403       .  A
C697        C702   1.412       .  A
C697        H704   1.083       .  S
C698        C699   1.417       .  A
C699        C700   1.403       .  A
C699        C706   1.520       .  S
C700        C701   1.399       .  A
C700        H705   1.083       .  S
C701        C702   1.418       .  A
C702        C703   1.517       .  S
C703        F707   1.384       .  S
C703        F708   1.383       .  S
C703        F709   1.382       .  S
C706        F710   1.381       .  S
C706        F711   1.383       .  S
C706        F712   1.385       .  S
C713        C714   1.346       .  D
C713        C770   1.501       .  S
C713        C801   1.497       .  S
C714        C859   1.493       .  S
C714        C868   1.495       .  S
C715        C716   1.348       .  D
C715       C2243   1.498       .  S
C715       C2252   1.493       .  S
C716        C772   1.500       .  S
C716        C803   1.499       .  S
C717        C718   1.344       .  D
C717        C721   1.499       .  S
C717        C730   1.501       .  S
C718       C2167   1.490       .  S
C718        C752   1.489       .  S
C719        C720   1.410       .  A
C719        C724   1.413       .  A
C719       C1054   1.478       .  S
C720        C721   1.403       .  A
C720        H725   1.083       .  S
C721        C722   1.402       .  A
C722        C723   1.403       .  A
C722        H726   1.082       .  S
C723        C724   1.407       .  A
C724        H727   1.083       .  S
C728        C729   1.416       .  A
C728        C733   1.409       .  A
C728       C1038   1.483       .  S
C729        C730   1.404       .  A
C729        H734   1.083       .  S
C730        C731   1.401       .  A
C731        C732   1.402       .  A
C731        H735   1.082       .  S
C732        C733   1.400       .  A
C733        H736   1.083       .  S
C737        C738   1.344       .  D
C738        C861   1.499       .  S
C738        C870   1.507       .  S
C739        C740   1.420       .  A
C739        C744   1.412   1_455  A
C739       C1025   1.495       .  S
C740        C741   1.406       .  A
C740        H745   1.082       .  S
C741        C758   1.507       .  S
C741        C742   1.400   1_455  A
C742        C743   1.402       .  A
C742        H746   1.082       .  S
C743       C2142   1.490       .  S
C743        C744   1.403       .  A
C744        H747   1.081       .  S
C748        C749   1.419       .  A
C748        C753   1.410   1_455  A
C748       C1009   1.490       .  S
C749        C750   1.407       .  A
C749        H754   1.082       .  S
C750        C758   1.506       .  S
C750        C751   1.402   1_455  A
C751       C2176   1.403       .  A
C751        H755   1.082       .  S
C752       C2175   1.403       .  A
C752       C2177   1.400       .  A
C753       C2176   1.400       .  A
C753       H2180   1.082       .  S
H756       C2177   1.082       .  S
C757        C758   1.347       .  D
C757        C761   1.500       .  S
C757        C810   1.503       .  S
C759        C760   1.414       .  A
C759        C764   1.408       .  A
C759        C993   1.480       .  S
C760        C761   1.406       .  A
C760        H765   1.083       .  S
C761        C762   1.403       .  A
C762        H766   1.083       .  S
C763        C876   1.490       .  S
C768        C769   1.414       .  A
C768        C773   1.416       .  A
C768        C974   1.490       .  S
C769        C770   1.402       .  A
C769        H774   1.081       .  S
C770        C771   1.404       .  A
C771        C772   1.404       .  A
C771        H775   1.082       .  S
C772        C773   1.404       .  A
C773        H776   1.083       .  S
Fe777       O793   2.074       .  S
Fe777       O783   2.053       .  S
Fe777      O1146   2.049   1_554  S
Fe777      O1138   2.077   1_554  S
Fe777      O1144   1.973   1_554  S
Fe778       O781   2.093   1_556  S
Fe778       O785   2.055   1_556  S
Fe778      O1145   2.086       .  S
Fe778      O1150   2.063       .  S
Fe778      O1144   1.973       .  S
Fe779       O797   2.059   1_556  S
Fe779      O1140   2.059       .  S
Fe779       O791   2.064   1_556  S
Fe779      O1136   2.059       .  S
Fe779      O1144   1.968       .  S
O780      Fe1135   2.059       .  S
O780        C787   1.267       .  A
O781        C795   1.274       .  A
O782      Fe1133   2.077       .  S
O782        C787   1.271       .  A
O783        C786   1.264       .  A
O784      Fe1135   2.059       .  S
O784        C796   1.268       .  A
O785        C798   1.266       .  A
C786       C1041   1.483       .  S
C786        O791   1.269       .  A
C787       C1057   1.476       .  S
O788      Fe1133   1.973       .  S
O788      Fe1134   1.973       .  S
O788      Fe1135   1.968       .  S
O789      Fe1134   2.086       .  S
O789        C792   1.273       .  A
O790      Fe1133   2.049       .  S
O790        C792   1.265       .  A
C792        C977   1.486       .  S
O793        C798   1.270       .  A
O794      Fe1134   2.063       .  S
O794        C796   1.266       .  A
C795        C945   1.485       .  S
C795        O797   1.268       .  A
C796        C990   1.481       .  S
C798        C961   1.481       .  S
C799        C800   1.414       .  A
C799        C804   1.414       .  A
C799        C958   1.487       .  S
C800        C801   1.403       .  A
C800        H805   1.084       .  S
C801        C802   1.401       .  A
C802        C803   1.401       .  A
C802        H806   1.083       .  S
C803        C804   1.402       .  A
C804        H807   1.081       .  S
C808        C809   1.415       .  A
C808        C813   1.416       .  A
C808        C942   1.490       .  S
C809        C810   1.405       .  A
C809        H814   1.082       .  S
C810        C811   1.404       .  A
C811        C812   1.404       .  A
C811        H815   1.083       .  S
C812        C813   1.406       .  A
C813        H816   1.083       .  S
C817        C818   1.427       .  A
C817        C822   1.423       .  A
C817        C926   1.522       .  S
C818        C819   1.408   1_455  A
C818        H823   1.083   1_455  S
C819       C2139   1.498       .  S
C819        C820   1.400       .  A
C820        C821   1.398   1_655  A
C820        H824   1.082       .  S
C821        C875   1.510       .  S
C821        C822   1.404       .  A
C822        H825   1.066       .  S
C826        C827   1.407       .  A
C826        C831   1.412       .  A
C826        C910   1.473       .  S
C827        C828   1.398   1_455  A
C827        H832   1.082   1_455  S
C828       C2139   1.493       .  S
C828        C829   1.403   1_655  A
C829        C830   1.403       .  A
C829        H833   1.083   1_455  S
C830        C875   1.499       .  S
C830        C831   1.407       .  A
C831        H834   1.083       .  S
Fe835       O851   2.059       .  S
Fe835       O841   2.069       .  S
Fe835      O1204   2.075       .  S
Fe835      O1196   2.058       .  S
Fe835      O1202   1.968       .  S
Fe836      O1195   2.050   1_554  S
Fe836      O1199   2.085   1_554  S
Fe836       O847   2.047       .  S
Fe836       O852   2.076       .  S
Fe836       O846   1.974       .  S
Fe837      O1211   2.068   1_554  S
Fe837       O842   2.050       .  S
Fe837      O1205   2.062   1_554  S
Fe837       O838   2.069       .  S
Fe837       O846   1.974       .  S
O838        C845   1.268       .  A
O839      Fe1192   2.050       .  S
O839        C853   1.265       .  A
O840      Fe1191   2.058       .  S
O840        C845   1.269       .  A
O841        C844   1.271       .  A
O842        C854   1.266       .  A
O843      Fe1192   2.085       .  S
O843        C856   1.274       .  A
C844       C1022   1.494       .  S
C844        O849   1.266       .  A
C845       C1006   1.478       .  S
O846      Fe1191   1.968       .  S
O847        C850   1.263       .  A
O848      Fe1191   2.075       .  S
O848        C850   1.269       .  A
O849      Fe1193   2.062       .  S
C850        C913   1.469       .  S
O851        C856   1.266       .  A
O852        C854   1.272       .  A
C853        C878   1.464       .  S
C853        O855   1.268       .  A
C854        C897   1.483       .  S
O855      Fe1193   2.068       .  S
C856        C929   1.502       .  S
C857        C858   1.409       .  A
C857        C862   1.409       .  A
C857        C881   1.471       .  S
C858        C859   1.402       .  A
C858        H863   1.083       .  S
C859        C860   1.403       .  A
C860        C861   1.403       .  A
C860        H864   1.083       .  S
C861        C862   1.405       .  A
C862        H865   1.083       .  S
C866        C867   1.417       .  A
C866        C871   1.415       .  A
C866        C894   1.491       .  S
C867        C868   1.404       .  A
C867        H872   1.083       .  S
C868        C869   1.402       .  A
C869        C870   1.400       .  A
C869        H873   1.083       .  S
C870        C871   1.401       .  A
C871        H874   1.081       .  S
C875        C876   1.348       .  D
C877        C878   1.401       .  A
C877        C882   1.406       .  A
C877        H884   1.083       .  S
C878        C879   1.418       .  A
C879        C880   1.397       .  A
C879        C886   1.519       .  S
C880        C881   1.398       .  A
C880        H885   1.086       .  S
C881        C882   1.416       .  A
C882        C883   1.513       .  S
C883        F887   1.385       .  S
C883        F888   1.382       .  S
C883        F889   1.378       .  S
C886        F890   1.377       .  S
C886       F1247   1.384       .  S
C886        F892   1.384       .  S
F891       C1242   1.384       .  S
C893        C894   1.406       .  A
C893        C898   1.403       .  A
C893        H900   1.083       .  S
C894        C895   1.424       .  A
C895        C896   1.407       .  A
C895        C902   1.518       .  S
C896        C897   1.403       .  A
C896        H901   1.085       .  S
C897        C898   1.420       .  A
C898        C899   1.523       .  S
C899        F903   1.383       .  S
C899       F1260   1.382       .  S
C899        F905   1.382       .  S
C902        F906   1.383       .  S
C902        F907   1.379       .  S
C902        F908   1.384       .  S
F904       C1255   1.382       .  S
C909        C910   1.400       .  A
C909        C914   1.401       .  A
C909        H916   1.083       .  S
C910        C911   1.416       .  A
C911        C912   1.410       .  A
C911        C918   1.517       .  S
C912        C913   1.403       .  A
C912        H917   1.083       .  S
C913        C914   1.414       .  A
C914        C915   1.520       .  S
C915        F919   1.384       .  S
C915       F1276   1.383       .  S
C915        F921   1.383       .  S
C918        F922   1.381       .  S
C918        F923   1.382       .  S
C918        F924   1.384       .  S
F920       C1271   1.383       .  S
C925        C926   1.414       .  A
C925        C930   1.407       .  A
C925        H932   1.080       .  S
C926        C927   1.434       .  A
C927        C928   1.413       .  A
C927        C934   1.520       .  S
C928        C929   1.405       .  A
C928        H933   1.083       .  S
C929        C930   1.422       .  A
C930        C931   1.525       .  S
C931        F935   1.385   1_455  S
C931        F936   1.383       .  S
C931        F937   1.384       .  S
C934        F938   1.383       .  S
C934        F939   1.382       .  S
C934        F940   1.386       .  S
C941        C942   1.402       .  A
C941        C946   1.403       .  A
C941        H948   1.084       .  S
C942        C943   1.422       .  A
C943        C944   1.413       .  A
C943        C950   1.516       .  S
C944        C945   1.404       .  A
C944        H949   1.085       .  S
C945        C946   1.417       .  A
C946        C947   1.516       .  S
C947        F951   1.385       .  S
C947        F952   1.382       .  S
C947       F1309   1.380       .  S
C950        F954   1.381       .  S
C950        F955   1.383       .  S
C950        F956   1.384       .  S
F953       C1303   1.380       .  S
C957        C958   1.405       .  A
C957        C962   1.404       .  A
C957        H964   1.083       .  S
C958        C959   1.421       .  A
C959        C960   1.408       .  A
C959        C966   1.518       .  S
C960        C961   1.404       .  A
C960        H965   1.083       .  S
C961        C962   1.418       .  A
C962        C963   1.521       .  S
C963        F967   1.383       .  S
C963        F968   1.383       .  S
C963        F969   1.384       .  S
C966        F970   1.382       .  S
C966        F971   1.383       .  S
C966        F972   1.384       .  S
C973        C974   1.404       .  A
C973        C978   1.404       .  A
C973        H980   1.083       .  S
C974        C975   1.422       .  A
C975        C976   1.409       .  A
C975        C982   1.518       .  S
C976        C977   1.405       .  A
C976        H981   1.084       .  S
C977        C978   1.422       .  A
C978        C979   1.523       .  S
C979        F983   1.385       .  S
C979        F984   1.383       .  S
C979        F985   1.383       .  S
C982        F986   1.382       .  S
C982        F987   1.383       .  S
C982        F988   1.384       .  S
C989        C990   1.401       .  A
C989        C994   1.398       .  A
C989        H996   1.079       .  S
C990        C991   1.418       .  A
C991        C992   1.410       .  A
C991        C998   1.518       .  S
C992        C993   1.405       .  A
C992        H997   1.080       .  S
C993        C994   1.419       .  A
C994        C995   1.525       .  S
C995        F999   1.385       .  S
C995       F1001   1.384       .  S
C998       F1002   1.383       .  S
C998       F1003   1.382       .  S
C998       F1004   1.385       .  S
C1005      C1006   1.399       .  A
C1005      C1010   1.402       .  A
C1005      H1012   1.083       .  S
C1006      C1007   1.417       .  A
C1007      C1008   1.410       .  A
C1007      C1014   1.519       .  S
C1008      C1009   1.408       .  A
C1008      H1013   1.082       .  S
C1009      C1010   1.426       .  A
C1010      C1011   1.526   1_455  S
C1011      F2439   1.385       .  S
C1011      F2440   1.381       .  S
C1011      F2441   1.383       .  S
C1014      F1018   1.383       .  S
C1014      F1019   1.383       .  S
C1014      F1020   1.385       .  S
F1015      C2435   1.385       .  S
F1016      C2435   1.381       .  S
F1017      C2435   1.383       .  S
C1021      C1022   1.404       .  A
C1021      C1026   1.404       .  A
C1021      H1028   1.082       .  S
C1022      C1023   1.423       .  A
C1023      C1024   1.411       .  A
C1023      C1030   1.520       .  S
C1024      C1025   1.407       .  A
C1024      H1029   1.081       .  S
C1025      C1026   1.425       .  A
C1026      C1027   1.526   1_455  S
C1027      F2455   1.385       .  S
C1027      F2456   1.383       .  S
C1027      F2457   1.381       .  S
C1030      F1034   1.384       .  S
C1030      F1035   1.382       .  S
C1030      F1036   1.385       .  S
F1031      C2451   1.385       .  S
F1032      C2451   1.383       .  S
F1033      C2451   1.381       .  S
C1037      C1038   1.404       .  A
C1037      C1042   1.408       .  A
C1037      H1044   1.083       .  S
C1038      C1039   1.421       .  A
C1039      C1040   1.401       .  A
C1039      C1046   1.525       .  S
C1040      C1041   1.402       .  A
C1040      H1045   1.083       .  S
C1041      C1042   1.421       .  A
C1042      C1043   1.519       .  S
C1043      F1047   1.385       .  S
C1043      F1048   1.383       .  S
C1043      F1049   1.383       .  S
C1046      F1051   1.383       .  S
C1046      F1052   1.385       .  S
C1053      C1054   1.403       .  A
C1053      C1058   1.412       .  A
C1053      H1060   1.083       .  S
C1054      C1055   1.417       .  A
C1055      C1056   1.403       .  A
C1055      C1062   1.520       .  S
C1056      C1057   1.399       .  A
C1056      H1061   1.083       .  S
C1057      C1058   1.418       .  A
C1058      C1059   1.517       .  S
C1059      F1063   1.384       .  S
C1059      F1064   1.383       .  S
C1059      F1065   1.382       .  S
C1062      F1066   1.381       .  S
C1062      F1067   1.383       .  S
C1062      F1068   1.385       .  S
C1069      C1070   1.346       .  D
C1069      C1126   1.501       .  S
C1069      C1157   1.497       .  S
C1070      C1215   1.493       .  S
C1070      C1224   1.495       .  S
C1071      C1072   1.348       .  D
C1071      C2599   1.498       .  S
C1071      C2608   1.493       .  S
C1072      C1128   1.500       .  S
C1072      C1159   1.499       .  S
C1073      C1074   1.344       .  D
C1073      C1077   1.499       .  S
C1073      C1086   1.501       .  S
C1074      C2523   1.490       .  S
C1074      C1108   1.489       .  S
C1075      C1076   1.410       .  A
C1075      C1080   1.413       .  A
C1075      C1410   1.478       .  S
C1076      C1077   1.403       .  A
C1076      H1081   1.083       .  S
C1077      C1078   1.402       .  A
C1078      C1079   1.403       .  A
C1078      H1082   1.082       .  S
C1079      C1080   1.407       .  A
C1080      H1083   1.083       .  S
C1084      C1085   1.416       .  A
C1084      C1089   1.409       .  A
C1084      C1394   1.483       .  S
C1085      C1086   1.404       .  A
C1085      H1090   1.083       .  S
C1086      C1087   1.401       .  A
C1087      C1088   1.402       .  A
C1087      H1091   1.082       .  S
C1088      C1089   1.400       .  A
C1089      H1092   1.083       .  S
C1093      C1094   1.344       .  D
C1094      C1217   1.499       .  S
C1094      C1226   1.507       .  S
C1095      C1096   1.420       .  A
C1095      C1100   1.412   1_455  A
C1095      C1381   1.495       .  S
C1096      C1097   1.406       .  A
C1096      H1101   1.082       .  S
C1097      C1114   1.507       .  S
C1097      C1098   1.400   1_455  A
C1098      C1099   1.402       .  A
C1098      H1102   1.082       .  S
C1099      C2498   1.490       .  S
C1099      C1100   1.403       .  A
C1100      H1103   1.081       .  S
C1104      C1105   1.419       .  A
C1104      C1109   1.410   1_455  A
C1104      C1365   1.490       .  S
C1105      C1106   1.407       .  A
C1105      H1110   1.082       .  S
C1106      C1114   1.506       .  S
C1106      C1107   1.402   1_455  A
C1107      C2532   1.403       .  A
C1107      H1111   1.082       .  S
C1108      C2531   1.403       .  A
C1108      C2533   1.400       .  A
C1109      C2532   1.400       .  A
C1109      H2536   1.082       .  S
H1112      C2533   1.082       .  S
C1113      C1114   1.347       .  D
C1113      C1117   1.500       .  S
C1113      C1166   1.503       .  S
C1115      C1116   1.414       .  A
C1115      C1120   1.408       .  A
C1115      C1349   1.480       .  S
C1116      C1117   1.406       .  A
C1116      H1121   1.083       .  S
C1117      C1118   1.403       .  A
C1118      H1122   1.083       .  S
C1119      C1232   1.490       .  S
C1124      C1125   1.414       .  A
C1124      C1129   1.416       .  A
C1124      C1330   1.490       .  S
C1125      C1126   1.402       .  A
C1125      H1130   1.081       .  S
C1126      C1127   1.404       .  A
C1127      C1128   1.404       .  A
C1127      H1131   1.082       .  S
C1128      C1129   1.404       .  A
C1129      H1132   1.083       .  S
Fe1133     O1149   2.074       .  S
Fe1133     O1139   2.053       .  S
Fe1134     O1137   2.093       .  S
Fe1134     O1141   2.055       .  S
Fe1135     O1153   2.059       .  S
Fe1135     O1147   2.064       .  S
O1136      C1143   1.267       .  A
O1137      C1151   1.274       .  A
O1138      C1143   1.271       .  A
O1139      C1142   1.264       .  A
O1140      C1152   1.268       .  A
O1141      C1154   1.266       .  A
C1142      C1397   1.483       .  S
C1142      O1147   1.269       .  A
C1143      C1413   1.476       .  S
O1145      C1148   1.273       .  A
O1146      C1148   1.265       .  A
C1148      C1333   1.486       .  S
O1149      C1154   1.270       .  A
O1150      C1152   1.266       .  A
C1151      C1301   1.485       .  S
C1151      O1153   1.268       .  A
C1152      C1346   1.481       .  S
C1154      C1317   1.481       .  S
C1155      C1156   1.414       .  A
C1155      C1160   1.414       .  A
C1155      C1314   1.487       .  S
C1156      C1157   1.403       .  A
C1156      H1161   1.084       .  S
C1157      C1158   1.401       .  A
C1158      C1159   1.401       .  A
C1158      H1162   1.083       .  S
C1159      C1160   1.402       .  A
C1160      H1163   1.081       .  S
C1164      C1165   1.415       .  A
C1164      C1169   1.416       .  A
C1164      C1298   1.490       .  S
C1165      C1166   1.405       .  A
C1165      H1170   1.082       .  S
C1166      C1167   1.404       .  A
C1167      C1168   1.404       .  A
C1167      H1171   1.083       .  S
C1168      C1169   1.406       .  A
C1169      H1172   1.083       .  S
C1173      C1174   1.427       .  A
C1173      C1178   1.423       .  A
C1173      C1282   1.522       .  S
C1174      C1175   1.408   1_455  A
C1174      H1179   1.083   1_455  S
C1175      C2495   1.498       .  S
C1175      C1176   1.400       .  A
C1176      C1177   1.398   1_655  A
C1176      H1180   1.082       .  S
C1177      C1231   1.510       .  S
C1177      C1178   1.404       .  A
C1178      H1181   1.066       .  S
C1182      C1183   1.407       .  A
C1182      C1187   1.412       .  A
C1182      C1266   1.473       .  S
C1183      C1184   1.398   1_455  A
C1183      H1188   1.082   1_455  S
C1184      C2495   1.493       .  S
C1184      C1185   1.403   1_655  A
C1185      C1186   1.403       .  A
C1185      H1189   1.083   1_455  S
C1186      C1231   1.499       .  S
C1186      C1187   1.407       .  A
C1187      H1190   1.083       .  S
Fe1191     O1207   2.059   1_554  S
Fe1191     O1197   2.069   1_554  S
Fe1192     O1203   2.047       .  S
Fe1192     O1208   2.076       .  S
Fe1192     O1202   1.974       .  S
Fe1193     O1198   2.050       .  S
Fe1193     O1194   2.069       .  S
Fe1193     O1202   1.974       .  S
O1194      C1201   1.268       .  A
O1195      C1209   1.265       .  A
O1196      C1201   1.269       .  A
O1197      C1200   1.271       .  A
O1198      C1210   1.266       .  A
O1199      C1212   1.274       .  A
C1200      C1378   1.494       .  S
C1200      O1205   1.266       .  A
C1201      C1362   1.478       .  S
O1203      C1206   1.263       .  A
O1204      C1206   1.269       .  A
C1206      C1269   1.469       .  S
O1207      C1212   1.266       .  A
O1208      C1210   1.272       .  A
C1209      C1234   1.464       .  S
C1209      O1211   1.268       .  A
C1210      C1253   1.483       .  S
C1212      C1285   1.502       .  S
C1213      C1214   1.409       .  A
C1213      C1218   1.409       .  A
C1213      C1237   1.471       .  S
C1214      C1215   1.402       .  A
C1214      H1219   1.083       .  S
C1215      C1216   1.403       .  A
C1216      C1217   1.403       .  A
C1216      H1220   1.083       .  S
C1217      C1218   1.405       .  A
C1218      H1221   1.083       .  S
C1222      C1223   1.417       .  A
C1222      C1227   1.415       .  A
C1222      C1250   1.491       .  S
C1223      C1224   1.404       .  A
C1223      H1228   1.083       .  S
C1224      C1225   1.402       .  A
C1225      C1226   1.400       .  A
C1225      H1229   1.083       .  S
C1226      C1227   1.401       .  A
C1227      H1230   1.081       .  S
C1231      C1232   1.348       .  D
C1233      C1234   1.401       .  A
C1233      C1238   1.406       .  A
C1233      H1240   1.083       .  S
C1234      C1235   1.418       .  A
C1235      C1236   1.397       .  A
C1235      C1242   1.519       .  S
C1236      C1237   1.398       .  A
C1236      H1241   1.086       .  S
C1237      C1238   1.416       .  A
C1238      C1239   1.513       .  S
C1239      F1243   1.385       .  S
C1239      F1244   1.382       .  S
C1239      F1245   1.378       .  S
C1242      F1246   1.377       .  S
C1242      F1248   1.384       .  S
C1249      C1250   1.406       .  A
C1249      C1254   1.403       .  A
C1249      H1256   1.083       .  S
C1250      C1251   1.424       .  A
C1251      C1252   1.407       .  A
C1251      C1258   1.518       .  S
C1252      C1253   1.403       .  A
C1252      H1257   1.085       .  S
C1253      C1254   1.420       .  A
C1254      C1255   1.523       .  S
C1255      F1259   1.383       .  S
C1255      F1261   1.382       .  S
C1258      F1262   1.383       .  S
C1258      F1263   1.379       .  S
C1258      F1264   1.384       .  S
C1265      C1266   1.400       .  A
C1265      C1270   1.401       .  A
C1265      H1272   1.083       .  S
C1266      C1267   1.416       .  A
C1267      C1268   1.410       .  A
C1267      C1274   1.517       .  S
C1268      C1269   1.403       .  A
C1268      H1273   1.083       .  S
C1269      C1270   1.414       .  A
C1270      C1271   1.520       .  S
C1271      F1275   1.384       .  S
C1271      F1277   1.383       .  S
C1274      F1278   1.381       .  S
C1274      F1279   1.382       .  S
C1274      F1280   1.384       .  S
C1281      C1282   1.414       .  A
C1281      C1286   1.407       .  A
C1281      H1288   1.080       .  S
C1282      C1283   1.434       .  A
C1283      C1284   1.413       .  A
C1283      C1290   1.520       .  S
C1284      C1285   1.405       .  A
C1284      H1289   1.083       .  S
C1285      C1286   1.422       .  A
C1286      C1287   1.525       .  S
C1287      F1291   1.385   1_455  S
C1287      F1292   1.383       .  S
C1287      F1293   1.384       .  S
C1290      F1294   1.383       .  S
C1290      F1295   1.382       .  S
C1290      F1296   1.386       .  S
C1297      C1298   1.402       .  A
C1297      C1302   1.403       .  A
C1297      H1304   1.084       .  S
C1298      C1299   1.422       .  A
C1299      C1300   1.413       .  A
C1299      C1306   1.516       .  S
C1300      C1301   1.404       .  A
C1300      H1305   1.085       .  S
C1301      C1302   1.417       .  A
C1302      C1303   1.516       .  S
C1303      F1307   1.385       .  S
C1303      F1308   1.382       .  S
C1306      F1310   1.381       .  S
C1306      F1311   1.383       .  S
C1306      F1312   1.384       .  S
C1313      C1314   1.405       .  A
C1313      C1318   1.404       .  A
C1313      H1320   1.083       .  S
C1314      C1315   1.421       .  A
C1315      C1316   1.408       .  A
C1315      C1322   1.518       .  S
C1316      C1317   1.404       .  A
C1316      H1321   1.083       .  S
C1317      C1318   1.418       .  A
C1318      C1319   1.521       .  S
C1319      F1323   1.383       .  S
C1319      F1324   1.383       .  S
C1319      F1325   1.384       .  S
C1322      F1326   1.382       .  S
C1322      F1327   1.383       .  S
C1322      F1328   1.384       .  S
C1329      C1330   1.404       .  A
C1329      C1334   1.404       .  A
C1329      H1336   1.083       .  S
C1330      C1331   1.422       .  A
C1331      C1332   1.409       .  A
C1331      C1338   1.518       .  S
C1332      C1333   1.405       .  A
C1332      H1337   1.084       .  S
C1333      C1334   1.422       .  A
C1334      C1335   1.523       .  S
C1335      F1339   1.385       .  S
C1335      F1340   1.383       .  S
C1335      F1341   1.383       .  S
C1338      F1342   1.382       .  S
C1338      F1343   1.383       .  S
C1338      F1344   1.384       .  S
C1345      C1346   1.401       .  A
C1345      C1350   1.398       .  A
C1345      H1352   1.079       .  S
C1346      C1347   1.418       .  A
C1347      C1348   1.410       .  A
C1347      C1354   1.518       .  S
C1348      C1349   1.405       .  A
C1348      H1353   1.080       .  S
C1349      C1350   1.419       .  A
C1350      C1351   1.525       .  S
C1351      F1355   1.385       .  S
C1351      F1357   1.384       .  S
C1354      F1358   1.383       .  S
C1354      F1359   1.382       .  S
C1354      F1360   1.385       .  S
C1361      C1362   1.399       .  A
C1361      C1366   1.402       .  A
C1361      H1368   1.083       .  S
C1362      C1363   1.417       .  A
C1363      C1364   1.410       .  A
C1363      C1370   1.519       .  S
C1364      C1365   1.408       .  A
C1364      H1369   1.082       .  S
C1365      C1366   1.426       .  A
C1366      C1367   1.526   1_455  S
C1367      F2795   1.385       .  S
C1367      F2796   1.381       .  S
C1367      F2797   1.383       .  S
C1370      F1374   1.383       .  S
C1370      F1375   1.383       .  S
C1370      F1376   1.385       .  S
F1371      C2791   1.385       .  S
F1372      C2791   1.381       .  S
F1373      C2791   1.383       .  S
C1377      C1378   1.404       .  A
C1377      C1382   1.404       .  A
C1377      H1384   1.082       .  S
C1378      C1379   1.423       .  A
C1379      C1380   1.411       .  A
C1379      C1386   1.520       .  S
C1380      C1381   1.407       .  A
C1380      H1385   1.081       .  S
C1381      C1382   1.425       .  A
C1382      C1383   1.526   1_455  S
C1383      F2811   1.385       .  S
C1383      F2812   1.383       .  S
C1383      F2813   1.381       .  S
C1386      F1390   1.384       .  S
C1386      F1391   1.382       .  S
C1386      F1392   1.385       .  S
F1387      C2807   1.385       .  S
F1388      C2807   1.383       .  S
F1389      C2807   1.381       .  S
C1393      C1394   1.404       .  A
C1393      C1398   1.408       .  A
C1393      H1400   1.083       .  S
C1394      C1395   1.421       .  A
C1395      C1396   1.401       .  A
C1395      C1402   1.525       .  S
C1396      C1397   1.402       .  A
C1396      H1401   1.083       .  S
C1397      C1398   1.421       .  A
C1398      C1399   1.519       .  S
C1399      F1403   1.385       .  S
C1399      F1404   1.383       .  S
C1399      F1405   1.383       .  S
C1402      F1407   1.383       .  S
C1402      F1408   1.385       .  S
C1409      C1410   1.403       .  A
C1409      C1414   1.412       .  A
C1409      H1416   1.083       .  S
C1410      C1411   1.417       .  A
C1411      C1412   1.403       .  A
C1411      C1418   1.520       .  S
C1412      C1413   1.399       .  A
C1412      H1417   1.083       .  S
C1413      C1414   1.418       .  A
C1414      C1415   1.517       .  S
C1415      F1419   1.384       .  S
C1415      F1420   1.383       .  S
C1415      F1421   1.382       .  S
C1418      F1422   1.381       .  S
C1418      F1423   1.383       .  S
C1418      F1424   1.385       .  S
C1425      C1426   1.346       .  D
C1425      C1482   1.501       .  S
C1425      C1513   1.497       .  S
C1426      C1571   1.493       .  S
C1426      C1580   1.495       .  S
C1427      C1428   1.348       .  D
C1428      C1484   1.500       .  S
C1428      C1515   1.499       .  S
C1429      C1430   1.343       .  D
C1429      C1433   1.499       .  S
C1429      C1442   1.501       .  S
C1430      C1464   1.489       .  S
C1431      C1432   1.410       .  A
C1431      C1436   1.413       .  A
C1431      C1766   1.478       .  S
C1432      C1433   1.403       .  A
C1432      H1437   1.083       .  S
C1433      C1434   1.402       .  A
C1434      C1435   1.403   1_545  A
C1434      H1438   1.082   1_545  S
C1435      C2161   1.499       .  S
C1435      C1436   1.407   1_565  A
C1436      H1439   1.083   1_545  S
C1440      C1441   1.416       .  A
C1440      C1445   1.409   1_545  A
C1440      C1750   1.482       .  S
C1441      C1442   1.404       .  A
C1441      H1446   1.083       .  S
C1442      C1443   1.401   1_545  A
C1443      C1444   1.402       .  A
C1443      H1447   1.082       .  S
C1444      C2161   1.491       .  S
C1444      C1445   1.400       .  A
C1445      H1448   1.083       .  S
C1449      C1450   1.344       .  D
C1449      C2147   1.499       .  S
C1449      C2156   1.491       .  S
C1450      C1573   1.499       .  S
C1450      C1582   1.507       .  S
C1451      C1452   1.420       .  A
C1451      C1456   1.412       .  A
C1451      C1737   1.495       .  S
C1452      C1453   1.406       .  A
C1452      H1457   1.082       .  S
C1453      C1470   1.507       .  S
C1453      C1454   1.400       .  A
C1454      C1455   1.401       .  A
C1454      H1458   1.082       .  S
C1455      C1456   1.403       .  A
C1456      H1459   1.081       .  S
C1460      C1461   1.419       .  A
C1460      C1465   1.409       .  A
C1460      C1721   1.490       .  S
C1461      C1462   1.407       .  A
C1461      H1466   1.082       .  S
C1462      C1470   1.506       .  S
C1462      C1463   1.402       .  A
C1463      H1467   1.082       .  S
C1469      C1470   1.347       .  D
C1469      C1473   1.500       .  S
C1469      C1522   1.503       .  S
C1471      C1472   1.414       .  A
C1471      C1476   1.408       .  A
C1471      C1705   1.480       .  S
C1472      C1473   1.406       .  A
C1472      H1477   1.083       .  S
C1473      C1474   1.403       .  A
C1474      C2187   1.402   1_545  A
C1474      H1478   1.083   1_545  S
C1475      C1588   1.490       .  S
C1475      C2186   1.402       .  A
C1475      C2188   1.399       .  A
C1476      C2187   1.399   1_545  A
C1476      H2191   1.083   1_545  S
H1479      C2188   1.083       .  S
C1480      C1481   1.414       .  A
C1480      C1485   1.416       .  A
C1480      C1686   1.490       .  S
C1481      C1482   1.402       .  A
C1481      H1486   1.081       .  S
C1482      C1483   1.404       .  A
C1483      C1484   1.404       .  A
C1483      H1487   1.082       .  S
C1484      C1485   1.404       .  A
C1485      H1488   1.083       .  S
Fe1489     O1505   2.074       .  S
Fe1489     O1495   2.053       .  S
Fe1489     O1858   2.049   1_554  S
Fe1489     O1850   2.077   1_554  S
Fe1489     O1856   1.973   1_554  S
Fe1490     O1493   2.094   1_556  S
Fe1490     O1497   2.055   1_556  S
Fe1490     O1857   2.086       .  S
Fe1490     O1862   2.063       .  S
Fe1490     O1856   1.973       .  S
Fe1491     O1509   2.059   1_556  S
Fe1491     O1852   2.059       .  S
Fe1491     O1503   2.064   1_556  S
Fe1491     O1848   2.059       .  S
Fe1491     O1856   1.968       .  S
O1492     Fe1847   2.059       .  S
O1492      C1499   1.267       .  A
O1493      C1507   1.274       .  A
O1494     Fe1845   2.077       .  S
O1494      C1499   1.271       .  A
O1495      C1498   1.264       .  A
O1496     Fe1847   2.059       .  S
O1496      C1508   1.268       .  A
O1497      C1510   1.266       .  A
C1498      C1753   1.483       .  S
C1498      O1503   1.269       .  A
C1499      C1769   1.476       .  S
O1500     Fe1845   1.973       .  S
O1500     Fe1846   1.973       .  S
O1500     Fe1847   1.968       .  S
O1501     Fe1846   2.086       .  S
O1501      C1504   1.273       .  A
O1502     Fe1845   2.049       .  S
O1502      C1504   1.265       .  A
C1504      C1689   1.486       .  S
O1505      C1510   1.270       .  A
O1506     Fe1846   2.063       .  S
O1506      C1508   1.266       .  A
C1507      C1657   1.486       .  S
C1507      O1509   1.268       .  A
C1508      C1702   1.481       .  S
C1510      C1673   1.481       .  S
C1511      C1512   1.414       .  A
C1511      C1516   1.414       .  A
C1511      C1670   1.487       .  S
C1512      C1513   1.403       .  A
C1512      H1517   1.084       .  S
C1513      C1514   1.401       .  A
C1514      C1515   1.401       .  A
C1514      H1518   1.083       .  S
C1515      C1516   1.402       .  A
C1516      H1519   1.081       .  S
C1520      C1521   1.415       .  A
C1520      C1525   1.416       .  A
C1520      C1654   1.490       .  S
C1521      C1522   1.405       .  A
C1521      H1526   1.082       .  S
C1522      C1523   1.404       .  A
C1523      C1524   1.404   1_545  A
C1523      H1527   1.083   1_545  S
C1524      C2300   1.501       .  S
C1524      C1525   1.406   1_565  A
C1525      H1528   1.083   1_545  S
C1529      C1530   1.427       .  A
C1529      C1534   1.423       .  A
C1529      C1638   1.523       .  S
C1530      C1531   1.409       .  A
C1530      H1535   1.083       .  S
C1531      C1532   1.400       .  A
C1532      C1533   1.398       .  A
C1532      H1536   1.083       .  S
C1533      C1587   1.510       .  S
C1533      C1534   1.404       .  A
C1534      H1537   1.065       .  S
C1538      C1539   1.407       .  A
C1538      C1543   1.412       .  A
C1538      C1622   1.473       .  S
C1539      C1540   1.398       .  A
C1539      H1544   1.082       .  S
C1540      C1541   1.403       .  A
C1541      C1542   1.403       .  A
C1541      H1545   1.083       .  S
C1542      C1587   1.499       .  S
C1542      C1543   1.407       .  A
C1543      H1546   1.083       .  S
Fe1547     O1563   2.059       .  S
Fe1547     O1553   2.069       .  S
Fe1547     O1916   2.075       .  S
Fe1547     O1908   2.058       .  S
Fe1547     O1914   1.968       .  S
Fe1548     O1907   2.050   1_554  S
Fe1548     O1911   2.085   1_554  S
Fe1548     O1559   2.047       .  S
Fe1548     O1564   2.076       .  S
Fe1548     O1558   1.974       .  S
Fe1549     O1923   2.068   1_554  S
Fe1549     O1554   2.050       .  S
Fe1549     O1917   2.062   1_554  S
Fe1549     O1550   2.069       .  S
Fe1549     O1558   1.974       .  S
O1550      C1557   1.268       .  A
O1551     Fe1904   2.050       .  S
O1551      C1565   1.265       .  A
O1552     Fe1903   2.058       .  S
O1552      C1557   1.269       .  A
O1553      C1556   1.271       .  A
O1554      C1566   1.266       .  A
O1555     Fe1904   2.085       .  S
O1555      C1568   1.274       .  A
C1556      C1734   1.494       .  S
C1556      O1561   1.266       .  A
C1557      C1718   1.478       .  S
O1558     Fe1903   1.968       .  S
O1559      C1562   1.263       .  A
O1560     Fe1903   2.075       .  S
O1560      C1562   1.269       .  A
O1561     Fe1905   2.062       .  S
C1562      C1625   1.469       .  S
O1563      C1568   1.266       .  A
O1564      C1566   1.272       .  A
C1565      C1590   1.464       .  S
C1565      O1567   1.268       .  A
C1566      C1609   1.483       .  S
O1567     Fe1905   2.068       .  S
C1568      C1641   1.502       .  S
C1569      C1570   1.409       .  A
C1569      C1574   1.409       .  A
C1569      C1593   1.471       .  S
C1570      C1571   1.402       .  A
C1570      H1575   1.083       .  S
C1571      C1572   1.403       .  A
C1572      C1573   1.403       .  A
C1572      H1576   1.083       .  S
C1573      C1574   1.405       .  A
C1574      H1577   1.083       .  S
C1578      C1579   1.417       .  A
C1578      C1583   1.415       .  A
C1578      C1606   1.491       .  S
C1579      C1580   1.404       .  A
C1579      H1584   1.083       .  S
C1580      C1581   1.402       .  A
C1581      C1582   1.400       .  A
C1581      H1585   1.083       .  S
C1582      C1583   1.401       .  A
C1583      H1586   1.081       .  S
C1587      C1588   1.348       .  D
C1588      C2236   1.501       .  S
C1589      C1590   1.401       .  A
C1589      C1594   1.406       .  A
C1589      H1596   1.083       .  S
C1590      C1591   1.418       .  A
C1591      C1592   1.397       .  A
C1591      C1598   1.519       .  S
C1592      C1593   1.398       .  A
C1592      H1597   1.086       .  S
C1593      C1594   1.416       .  A
C1594      C1595   1.513       .  S
C1595      F1599   1.385       .  S
C1595      F1600   1.382       .  S
C1595      F1601   1.378       .  S
C1598      F1602   1.377       .  S
C1598      F1959   1.384       .  S
C1598      F1604   1.384       .  S
F1603      C1954   1.384       .  S
C1605      C1606   1.406       .  A
C1605      C1610   1.403       .  A
C1605      H1612   1.083       .  S
C1606      C1607   1.424       .  A
C1607      C1608   1.407       .  A
C1607      C1614   1.518       .  S
C1608      C1609   1.403       .  A
C1608      H1613   1.085       .  S
C1609      C1610   1.420       .  A
C1610      C1611   1.523       .  S
C1611      F1615   1.383       .  S
C1611      F1972   1.382       .  S
C1611      F1617   1.382       .  S
C1614      F1618   1.383       .  S
C1614      F1619   1.379       .  S
C1614      F1620   1.384       .  S
F1616      C1967   1.382       .  S
C1621      C1622   1.400       .  A
C1621      C1626   1.401       .  A
C1621      H1628   1.083       .  S
C1622      C1623   1.416       .  A
C1623      C1624   1.410       .  A
C1623      C1630   1.518       .  S
C1624      C1625   1.403       .  A
C1624      H1629   1.083       .  S
C1625      C1626   1.414       .  A
C1626      C1627   1.520       .  S
C1627      F1631   1.384       .  S
C1627      F1988   1.383       .  S
C1627      F1633   1.383       .  S
C1630      F1634   1.381       .  S
C1630      F1635   1.382       .  S
C1630      F1636   1.384       .  S
F1632      C1983   1.383       .  S
C1637      C1638   1.414       .  A
C1637      C1642   1.407       .  A
C1637      H1644   1.079       .  S
C1638      C1639   1.434       .  A
C1639      C1640   1.413       .  A
C1639      C1646   1.520       .  S
C1640      C1641   1.405       .  A
C1640      H1645   1.083       .  S
C1641      C1642   1.422       .  A
C1642      C1643   1.525       .  S
C1643      F1647   1.385       .  S
C1643      F1648   1.383       .  S
C1643      F1649   1.384       .  S
C1646      F1650   1.383       .  S
C1646      F1651   1.382       .  S
C1646      F1652   1.386       .  S
C1653      C1654   1.402       .  A
C1653      C1658   1.403       .  A
C1653      H1660   1.083       .  S
C1654      C1655   1.423       .  A
C1655      C1656   1.413       .  A
C1655      C1662   1.516       .  S
C1656      C1657   1.404       .  A
C1656      H1661   1.085       .  S
C1657      C1658   1.417       .  A
C1658      C1659   1.516       .  S
C1659      F1663   1.385   1_545  S
C1659      F1664   1.382       .  S
C1659      F2021   1.380       .  S
C1662      F1666   1.381       .  S
C1662      F1667   1.383       .  S
C1662      F1668   1.384       .  S
F1665      C2015   1.380       .  S
C1669      C1670   1.405       .  A
C1669      C1674   1.404       .  A
C1669      H1676   1.083       .  S
C1670      C1671   1.421       .  A
C1671      C1672   1.408       .  A
C1671      C1678   1.518       .  S
C1672      C1673   1.404       .  A
C1672      H1677   1.083       .  S
C1673      C1674   1.418       .  A
C1674      C1675   1.521       .  S
C1675      F1679   1.383       .  S
C1675      F1680   1.383       .  S
C1675      F1681   1.384       .  S
C1678      F1682   1.382       .  S
C1678      F1683   1.383       .  S
C1678      F1684   1.384       .  S
C1685      C1686   1.404       .  A
C1685      C1690   1.404       .  A
C1685      H1692   1.083       .  S
C1686      C1687   1.422       .  A
C1687      C1688   1.409       .  A
C1687      C1694   1.518       .  S
C1688      C1689   1.405       .  A
C1688      H1693   1.084       .  S
C1689      C1690   1.422       .  A
C1690      C1691   1.523       .  S
C1691      F1695   1.385       .  S
C1691      F1696   1.383       .  S
C1691      F1697   1.383       .  S
C1694      F1698   1.382       .  S
C1694      F1699   1.383       .  S
C1694      F1700   1.384       .  S
C1701      C1702   1.401       .  A
C1701      C1706   1.398       .  A
C1701      H1708   1.079       .  S
C1702      C1703   1.418       .  A
C1703      C1704   1.410       .  A
C1703      C1710   1.518       .  S
C1704      C1705   1.405       .  A
C1704      H1709   1.080       .  S
C1705      C1706   1.419       .  A
C1706      C1707   1.525       .  S
C1707      F1711   1.385   1_545  S
C1707      F2424   1.380   1_545  S
C1707      F1713   1.384       .  S
C1710      F1714   1.383       .  S
C1710      F1715   1.382       .  S
C1710      F1716   1.385       .  S
F1712      C2419   1.380       .  S
C1717      C1718   1.399       .  A
C1717      C1722   1.402       .  A
C1717      H1724   1.083       .  S
C1718      C1719   1.417       .  A
C1719      C1720   1.410       .  A
C1719      C1726   1.519       .  S
C1720      C1721   1.408       .  A
C1720      H1725   1.082       .  S
C1721      C1722   1.426       .  A
C1722      C1723   1.526       .  S
C1726      F1730   1.383       .  S
C1726      F1731   1.383       .  S
C1726      F1732   1.385       .  S
C1733      C1734   1.404       .  A
C1733      C1738   1.404       .  A
C1733      H1740   1.082       .  S
C1734      C1735   1.423       .  A
C1735      C1736   1.411       .  A
C1735      C1742   1.520       .  S
C1736      C1737   1.407       .  A
C1736      H1741   1.081       .  S
C1737      C1738   1.425       .  A
C1738      C1739   1.526       .  S
C1742      F1746   1.384       .  S
C1742      F1747   1.382       .  S
C1742      F1748   1.385       .  S
C1749      C1750   1.404       .  A
C1749      C1754   1.408       .  A
C1749      H1756   1.083       .  S
C1750      C1751   1.421       .  A
C1751      C1752   1.401       .  A
C1751      C1758   1.525   1_545  S
C1752      C1753   1.402       .  A
C1752      H1757   1.083       .  S
C1753      C1754   1.421       .  A
C1754      C1755   1.519       .  S
C1755      F1759   1.385       .  S
C1755      F1760   1.383       .  S
C1755      F1761   1.383       .  S
C1758      F2474   1.381       .  S
C1758      F1763   1.383       .  S
C1758      F1764   1.385       .  S
F1762      C2470   1.381       .  S
C1765      C1766   1.403       .  A
C1765      C1770   1.412       .  A
C1765      H1772   1.083       .  S
C1766      C1767   1.417       .  A
C1767      C1768   1.403       .  A
C1767      C1774   1.520       .  S
C1768      C1769   1.399       .  A
C1768      H1773   1.083       .  S
C1769      C1770   1.418       .  A
C1770      C1771   1.517       .  S
C1771      F1775   1.384       .  S
C1771      F1776   1.383       .  S
C1771      F1777   1.382       .  S
C1774      F1778   1.381       .  S
C1774      F1779   1.383       .  S
C1774      F1780   1.385       .  S
C1781      C1782   1.346       .  D
C1781      C1838   1.501       .  S
C1781      C1869   1.497       .  S
C1782      C1927   1.493       .  S
C1782      C1936   1.495       .  S
C1783      C1784   1.348       .  D
C1784      C1840   1.500       .  S
C1784      C1871   1.499       .  S
C1785      C1786   1.343       .  D
C1785      C1789   1.499       .  S
C1785      C1798   1.501       .  S
C1786      C1820   1.489       .  S
C1787      C1788   1.410       .  A
C1787      C1792   1.413       .  A
C1787      C2122   1.478       .  S
C1788      C1789   1.403       .  A
C1788      H1793   1.083       .  S
C1789      C1790   1.402       .  A
C1790      C1791   1.403   1_545  A
C1790      H1794   1.082   1_545  S
C1791      C2517   1.499       .  S
C1791      C1792   1.407   1_565  A
C1792      H1795   1.083   1_545  S
C1796      C1797   1.416       .  A
C1796      C1801   1.409   1_545  A
C1796      C2106   1.482       .  S
C1797      C1798   1.404       .  A
C1797      H1802   1.083       .  S
C1798      C1799   1.401   1_545  A
C1799      C1800   1.402       .  A
C1799      H1803   1.082       .  S
C1800      C2517   1.491       .  S
C1800      C1801   1.400       .  A
C1801      H1804   1.083       .  S
C1805      C1806   1.344       .  D
C1805      C2503   1.499       .  S
C1805      C2512   1.491       .  S
C1806      C1929   1.499       .  S
C1806      C1938   1.507       .  S
C1807      C1808   1.420       .  A
C1807      C1812   1.412       .  A
C1807      C2093   1.495       .  S
C1808      C1809   1.406       .  A
C1808      H1813   1.082       .  S
C1809      C1826   1.507       .  S
C1809      C1810   1.400       .  A
C1810      C1811   1.401       .  A
C1810      H1814   1.082       .  S
C1811      C1812   1.403       .  A
C1812      H1815   1.081       .  S
C1816      C1817   1.419       .  A
C1816      C1821   1.409       .  A
C1816      C2077   1.490       .  S
C1817      C1818   1.407       .  A
C1817      H1822   1.082       .  S
C1818      C1826   1.506       .  S
C1818      C1819   1.402       .  A
C1819      H1823   1.082       .  S
C1825      C1826   1.347       .  D
C1825      C1829   1.500       .  S
C1825      C1878   1.503       .  S
C1827      C1828   1.414       .  A
C1827      C1832   1.408       .  A
C1827      C2061   1.480       .  S
C1828      C1829   1.406       .  A
C1828      H1833   1.083       .  S
C1829      C1830   1.403       .  A
C1830      C2543   1.402   1_545  A
C1830      H1834   1.083   1_545  S
C1831      C1944   1.490       .  S
C1831      C2542   1.402       .  A
C1831      C2544   1.399       .  A
C1832      C2543   1.399   1_545  A
C1832      H2547   1.083   1_545  S
H1835      C2544   1.083       .  S
C1836      C1837   1.414       .  A
C1836      C1841   1.416       .  A
C1836      C2042   1.490       .  S
C1837      C1838   1.402       .  A
C1837      H1842   1.081       .  S
C1838      C1839   1.404       .  A
C1839      C1840   1.404       .  A
C1839      H1843   1.082       .  S
C1840      C1841   1.404       .  A
C1841      H1844   1.083       .  S
Fe1845     O1861   2.074       .  S
Fe1845     O1851   2.053       .  S
Fe1846     O1849   2.094       .  S
Fe1846     O1853   2.055       .  S
Fe1847     O1865   2.059       .  S
Fe1847     O1859   2.064       .  S
O1848      C1855   1.267       .  A
O1849      C1863   1.274       .  A
O1850      C1855   1.271       .  A
O1851      C1854   1.264       .  A
O1852      C1864   1.268       .  A
O1853      C1866   1.266       .  A
C1854      C2109   1.483       .  S
C1854      O1859   1.269       .  A
C1855      C2125   1.476       .  S
O1857      C1860   1.273       .  A
O1858      C1860   1.265       .  A
C1860      C2045   1.486       .  S
O1861      C1866   1.270       .  A
O1862      C1864   1.266       .  A
C1863      C2013   1.486       .  S
C1863      O1865   1.268       .  A
C1864      C2058   1.481       .  S
C1866      C2029   1.481       .  S
C1867      C1868   1.414       .  A
C1867      C1872   1.414       .  A
C1867      C2026   1.487       .  S
C1868      C1869   1.403       .  A
C1868      H1873   1.084       .  S
C1869      C1870   1.401       .  A
C1870      C1871   1.401       .  A
C1870      H1874   1.083       .  S
C1871      C1872   1.402       .  A
C1872      H1875   1.081       .  S
C1876      C1877   1.415       .  A
C1876      C1881   1.416       .  A
C1876      C2010   1.490       .  S
C1877      C1878   1.405       .  A
C1877      H1882   1.082       .  S
C1878      C1879   1.404       .  A
C1879      C1880   1.404   1_545  A
C1879      H1883   1.083   1_545  S
C1880      C2656   1.501       .  S
C1880      C1881   1.406   1_565  A
C1881      H1884   1.083   1_545  S
C1885      C1886   1.427       .  A
C1885      C1890   1.423       .  A
C1885      C1994   1.523       .  S
C1886      C1887   1.409       .  A
C1886      H1891   1.083       .  S
C1887      C1888   1.400       .  A
C1888      C1889   1.398       .  A
C1888      H1892   1.083       .  S
C1889      C1943   1.510       .  S
C1889      C1890   1.404       .  A
C1890      H1893   1.065       .  S
C1894      C1895   1.407       .  A
C1894      C1899   1.412       .  A
C1894      C1978   1.473       .  S
C1895      C1896   1.398       .  A
C1895      H1900   1.082       .  S
C1896      C1897   1.403       .  A
C1897      C1898   1.403       .  A
C1897      H1901   1.083       .  S
C1898      C1943   1.499       .  S
C1898      C1899   1.407       .  A
C1899      H1902   1.083       .  S
Fe1903     O1919   2.059   1_554  S
Fe1903     O1909   2.069   1_554  S
Fe1904     O1915   2.047       .  S
Fe1904     O1920   2.076       .  S
Fe1904     O1914   1.974       .  S
Fe1905     O1910   2.050       .  S
Fe1905     O1906   2.069       .  S
Fe1905     O1914   1.974       .  S
O1906      C1913   1.268       .  A
O1907      C1921   1.265       .  A
O1908      C1913   1.269       .  A
O1909      C1912   1.271       .  A
O1910      C1922   1.266       .  A
O1911      C1924   1.274       .  A
C1912      C2090   1.494       .  S
C1912      O1917   1.266       .  A
C1913      C2074   1.478       .  S
O1915      C1918   1.263       .  A
O1916      C1918   1.269       .  A
C1918      C1981   1.469       .  S
O1919      C1924   1.266       .  A
O1920      C1922   1.272       .  A
C1921      C1946   1.464       .  S
C1921      O1923   1.268       .  A
C1922      C1965   1.483       .  S
C1924      C1997   1.502       .  S
C1925      C1926   1.409       .  A
C1925      C1930   1.409       .  A
C1925      C1949   1.471       .  S
C1926      C1927   1.402       .  A
C1926      H1931   1.083       .  S
C1927      C1928   1.403       .  A
C1928      C1929   1.403       .  A
C1928      H1932   1.083       .  S
C1929      C1930   1.405       .  A
C1930      H1933   1.083       .  S
C1934      C1935   1.417       .  A
C1934      C1939   1.415       .  A
C1934      C1962   1.491       .  S
C1935      C1936   1.404       .  A
C1935      H1940   1.083       .  S
C1936      C1937   1.402       .  A
C1937      C1938   1.400       .  A
C1937      H1941   1.083       .  S
C1938      C1939   1.401       .  A
C1939      H1942   1.081       .  S
C1943      C1944   1.348       .  D
C1944      C2592   1.501       .  S
C1945      C1946   1.401       .  A
C1945      C1950   1.406       .  A
C1945      H1952   1.083       .  S
C1946      C1947   1.418       .  A
C1947      C1948   1.397       .  A
C1947      C1954   1.519       .  S
C1948      C1949   1.398       .  A
C1948      H1953   1.086       .  S
C1949      C1950   1.416       .  A
C1950      C1951   1.513       .  S
C1951      F1955   1.385       .  S
C1951      F1956   1.382       .  S
C1951      F1957   1.378       .  S
C1954      F1958   1.377       .  S
C1954      F1960   1.384       .  S
C1961      C1962   1.406       .  A
C1961      C1966   1.403       .  A
C1961      H1968   1.083       .  S
C1962      C1963   1.424       .  A
C1963      C1964   1.407       .  A
C1963      C1970   1.518       .  S
C1964      C1965   1.403       .  A
C1964      H1969   1.085       .  S
C1965      C1966   1.420       .  A
C1966      C1967   1.523       .  S
C1967      F1971   1.383       .  S
C1967      F1973   1.382       .  S
C1970      F1974   1.383       .  S
C1970      F1975   1.379       .  S
C1970      F1976   1.384       .  S
C1977      C1978   1.400       .  A
C1977      C1982   1.401       .  A
C1977      H1984   1.083       .  S
C1978      C1979   1.416       .  A
C1979      C1980   1.410       .  A
C1979      C1986   1.518       .  S
C1980      C1981   1.403       .  A
C1980      H1985   1.083       .  S
C1981      C1982   1.414       .  A
C1982      C1983   1.520       .  S
C1983      F1987   1.384       .  S
C1983      F1989   1.383       .  S
C1986      F1990   1.381       .  S
C1986      F1991   1.382       .  S
C1986      F1992   1.384       .  S
C1993      C1994   1.414       .  A
C1993      C1998   1.407       .  A
C1993      H2000   1.079       .  S
C1994      C1995   1.434       .  A
C1995      C1996   1.413       .  A
C1995      C2002   1.520       .  S
C1996      C1997   1.405       .  A
C1996      H2001   1.083       .  S
C1997      C1998   1.422       .  A
C1998      C1999   1.525       .  S
C1999      F2003   1.385       .  S
C1999      F2004   1.383       .  S
C1999      F2005   1.384       .  S
C2002      F2006   1.383       .  S
C2002      F2007   1.382       .  S
C2002      F2008   1.386       .  S
C2009      C2010   1.402       .  A
C2009      C2014   1.403       .  A
C2009      H2016   1.083       .  S
C2010      C2011   1.423       .  A
C2011      C2012   1.413       .  A
C2011      C2018   1.516       .  S
C2012      C2013   1.404       .  A
C2012      H2017   1.085       .  S
C2013      C2014   1.417       .  A
C2014      C2015   1.516       .  S
C2015      F2019   1.385   1_545  S
C2015      F2020   1.382       .  S
C2018      F2022   1.381       .  S
C2018      F2023   1.383       .  S
C2018      F2024   1.384       .  S
C2025      C2026   1.405       .  A
C2025      C2030   1.404       .  A
C2025      H2032   1.083       .  S
C2026      C2027   1.421       .  A
C2027      C2028   1.408       .  A
C2027      C2034   1.518       .  S
C2028      C2029   1.404       .  A
C2028      H2033   1.083       .  S
C2029      C2030   1.418       .  A
C2030      C2031   1.521       .  S
C2031      F2035   1.383       .  S
C2031      F2036   1.383       .  S
C2031      F2037   1.384       .  S
C2034      F2038   1.382       .  S
C2034      F2039   1.383       .  S
C2034      F2040   1.384       .  S
C2041      C2042   1.404       .  A
C2041      C2046   1.404       .  A
C2041      H2048   1.083       .  S
C2042      C2043   1.422       .  A
C2043      C2044   1.409       .  A
C2043      C2050   1.518       .  S
C2044      C2045   1.405       .  A
C2044      H2049   1.084       .  S
C2045      C2046   1.422       .  A
C2046      C2047   1.523       .  S
C2047      F2051   1.385       .  S
C2047      F2052   1.383       .  S
C2047      F2053   1.383       .  S
C2050      F2054   1.382       .  S
C2050      F2055   1.383       .  S
C2050      F2056   1.384       .  S
C2057      C2058   1.401       .  A
C2057      C2062   1.398       .  A
C2057      H2064   1.079       .  S
C2058      C2059   1.418       .  A
C2059      C2060   1.410       .  A
C2059      C2066   1.518       .  S
C2060      C2061   1.405       .  A
C2060      H2065   1.080       .  S
C2061      C2062   1.419       .  A
C2062      C2063   1.525       .  S
C2063      F2067   1.385   1_545  S
C2063      F2780   1.380   1_545  S
C2063      F2069   1.384       .  S
C2066      F2070   1.383       .  S
C2066      F2071   1.382       .  S
C2066      F2072   1.385       .  S
F2068      C2775   1.380       .  S
C2073      C2074   1.399       .  A
C2073      C2078   1.402       .  A
C2073      H2080   1.083       .  S
C2074      C2075   1.417       .  A
C2075      C2076   1.410       .  A
C2075      C2082   1.519       .  S
C2076      C2077   1.408       .  A
C2076      H2081   1.082       .  S
C2077      C2078   1.426       .  A
C2078      C2079   1.526       .  S
C2082      F2086   1.383       .  S
C2082      F2087   1.383       .  S
C2082      F2088   1.385       .  S
C2089      C2090   1.404       .  A
C2089      C2094   1.404       .  A
C2089      H2096   1.082       .  S
C2090      C2091   1.423       .  A
C2091      C2092   1.411       .  A
C2091      C2098   1.520       .  S
C2092      C2093   1.407       .  A
C2092      H2097   1.081       .  S
C2093      C2094   1.425       .  A
C2094      C2095   1.526       .  S
C2098      F2102   1.384       .  S
C2098      F2103   1.382       .  S
C2098      F2104   1.385       .  S
C2105      C2106   1.404       .  A
C2105      C2110   1.408       .  A
C2105      H2112   1.083       .  S
C2106      C2107   1.421       .  A
C2107      C2108   1.401       .  A
C2107      C2114   1.525   1_545  S
C2108      C2109   1.402       .  A
C2108      H2113   1.083       .  S
C2109      C2110   1.421       .  A
C2110      C2111   1.519       .  S
C2111      F2115   1.385       .  S
C2111      F2116   1.383       .  S
C2111      F2117   1.383       .  S
C2114      F2830   1.381       .  S
C2114      F2119   1.383       .  S
C2114      F2120   1.385       .  S
F2118      C2826   1.381       .  S
C2121      C2122   1.403       .  A
C2121      C2126   1.412       .  A
C2121      H2128   1.083       .  S
C2122      C2123   1.417       .  A
C2123      C2124   1.403       .  A
C2123      C2130   1.520       .  S
C2124      C2125   1.399       .  A
C2124      H2129   1.083       .  S
C2125      C2126   1.418       .  A
C2126      C2127   1.517       .  S
C2127      F2131   1.384       .  S
C2127      F2132   1.383       .  S
C2127      F2133   1.382       .  S
C2130      F2134   1.381       .  S
C2130      F2135   1.383       .  S
C2130      F2136   1.385       .  S
C2137      C2138   1.346       .  D
C2137      C2194   1.501       .  S
C2137      C2225   1.497       .  S
C2138      C2283   1.493       .  S
C2138      C2292   1.495       .  S
C2139      C2140   1.348       .  D
C2140      C2196   1.500       .  S
C2140      C2227   1.499       .  S
C2141      C2142   1.344       .  D
C2141      C2145   1.499       .  S
C2141      C2154   1.501       .  S
C2142      C2176   1.489       .  S
C2143      C2144   1.410       .  A
C2143      C2148   1.413       .  A
C2143      C2478   1.478       .  S
C2144      C2145   1.403       .  A
C2144      H2149   1.083       .  S
C2145      C2146   1.402       .  A
C2146      C2147   1.403       .  A
C2146      H2150   1.082       .  S
C2147      C2148   1.407       .  A
C2148      H2151   1.083       .  S
C2152      C2153   1.416       .  A
C2152      C2157   1.409       .  A
C2152      C2462   1.483       .  S
C2153      C2154   1.404       .  A
C2153      H2158   1.083       .  S
C2154      C2155   1.401       .  A
C2155      C2156   1.402       .  A
C2155      H2159   1.082       .  S
C2156      C2157   1.400       .  A
C2157      H2160   1.083       .  S
C2161      C2162   1.344       .  D
C2162      C2285   1.499       .  S
C2162      C2294   1.507       .  S
C2163      C2164   1.420       .  A
C2163      C2168   1.412       .  A
C2163      C2449   1.495       .  S
C2164      C2165   1.406       .  A
C2164      H2169   1.082       .  S
C2165      C2182   1.507       .  S
C2165      C2166   1.400       .  A
C2166      C2167   1.402       .  A
C2166      H2170   1.082       .  S
C2167      C2168   1.403       .  A
C2168      H2171   1.081       .  S
C2172      C2173   1.419       .  A
C2172      C2177   1.410       .  A
C2172      C2433   1.490       .  S
C2173      C2174   1.407       .  A
C2173      H2178   1.082       .  S
C2174      C2182   1.506       .  S
C2174      C2175   1.402       .  A
C2175      H2179   1.082       .  S
C2181      C2182   1.347       .  D
C2181      C2185   1.500       .  S
C2181      C2234   1.503       .  S
C2183      C2184   1.414       .  A
C2183      C2188   1.408       .  A
C2183      C2417   1.480       .  S
C2184      C2185   1.406       .  A
C2184      H2189   1.083       .  S
C2185      C2186   1.403       .  A
C2186      H2190   1.083       .  S
C2187      C2300   1.490       .  S
C2192      C2193   1.414       .  A
C2192      C2197   1.416       .  A
C2192      C2398   1.490       .  S
C2193      C2194   1.402       .  A
C2193      H2198   1.081       .  S
C2194      C2195   1.404       .  A
C2195      C2196   1.404       .  A
C2195      H2199   1.082       .  S
C2196      C2197   1.404       .  A
C2197      H2200   1.083       .  S
Fe2201     O2217   2.074       .  S
Fe2201     O2207   2.053       .  S
Fe2201     O2570   2.049   1_554  S
Fe2201     O2562   2.077   1_554  S
Fe2201     O2568   1.973   1_554  S
Fe2202     O2205   2.093   1_556  S
Fe2202     O2209   2.055   1_556  S
Fe2202     O2569   2.086       .  S
Fe2202     O2574   2.063       .  S
Fe2202     O2568   1.973       .  S
Fe2203     O2221   2.059   1_556  S
Fe2203     O2564   2.059       .  S
Fe2203     O2215   2.064   1_556  S
Fe2203     O2560   2.059       .  S
Fe2203     O2568   1.968       .  S
O2204     Fe2559   2.059       .  S
O2204      C2211   1.267       .  A
O2205      C2219   1.274       .  A
O2206     Fe2557   2.077       .  S
O2206      C2211   1.271       .  A
O2207      C2210   1.264       .  A
O2208     Fe2559   2.059       .  S
O2208      C2220   1.268       .  A
O2209      C2222   1.266       .  A
C2210      C2465   1.483       .  S
C2210      O2215   1.269       .  A
C2211      C2481   1.476       .  S
O2212     Fe2557   1.973       .  S
O2212     Fe2558   1.973       .  S
O2212     Fe2559   1.968       .  S
O2213     Fe2558   2.086       .  S
O2213      C2216   1.273       .  A
O2214     Fe2557   2.049       .  S
O2214      C2216   1.265       .  A
C2216      C2401   1.486       .  S
O2217      C2222   1.270       .  A
O2218     Fe2558   2.063       .  S
O2218      C2220   1.266       .  A
C2219      C2369   1.485       .  S
C2219      O2221   1.268       .  A
C2220      C2414   1.481       .  S
C2222      C2385   1.481       .  S
C2223      C2224   1.414       .  A
C2223      C2228   1.414       .  A
C2223      C2382   1.487       .  S
C2224      C2225   1.403       .  A
C2224      H2229   1.084       .  S
C2225      C2226   1.401       .  A
C2226      C2227   1.401       .  A
C2226      H2230   1.083       .  S
C2227      C2228   1.402       .  A
C2228      H2231   1.081       .  S
C2232      C2233   1.415       .  A
C2232      C2237   1.416       .  A
C2232      C2366   1.490       .  S
C2233      C2234   1.405       .  A
C2233      H2238   1.082       .  S
C2234      C2235   1.404       .  A
C2235      C2236   1.404       .  A
C2235      H2239   1.083       .  S
C2236      C2237   1.406       .  A
C2237      H2240   1.083       .  S
C2241      C2242   1.427       .  A
C2241      C2246   1.423       .  A
C2241      C2350   1.522       .  S
C2242      C2243   1.408       .  A
C2242      H2247   1.083       .  S
C2243      C2244   1.400       .  A
C2244      C2245   1.398       .  A
C2244      H2248   1.082       .  S
C2245      C2299   1.510       .  S
C2245      C2246   1.404       .  A
C2246      H2249   1.066       .  S
C2250      C2251   1.407       .  A
C2250      C2255   1.412       .  A
C2250      C2334   1.473       .  S
C2251      C2252   1.398       .  A
C2251      H2256   1.082       .  S
C2252      C2253   1.403       .  A
C2253      C2254   1.403       .  A
C2253      H2257   1.083       .  S
C2254      C2299   1.499       .  S
C2254      C2255   1.407       .  A
C2255      H2258   1.083       .  S
Fe2259     O2275   2.059       .  S
Fe2259     O2265   2.069       .  S
Fe2259     O2628   2.075       .  S
Fe2259     O2620   2.058       .  S
Fe2259     O2626   1.968       .  S
Fe2260     O2619   2.050   1_554  S
Fe2260     O2623   2.085   1_554  S
Fe2260     O2271   2.047       .  S
Fe2260     O2276   2.076       .  S
Fe2260     O2270   1.974       .  S
Fe2261     O2635   2.068   1_554  S
Fe2261     O2266   2.050       .  S
Fe2261     O2629   2.062   1_554  S
Fe2261     O2262   2.069       .  S
Fe2261     O2270   1.974       .  S
O2262      C2269   1.268       .  A
O2263     Fe2616   2.050       .  S
O2263      C2277   1.265       .  A
O2264     Fe2615   2.058       .  S
O2264      C2269   1.269       .  A
O2265      C2268   1.271       .  A
O2266      C2278   1.266       .  A
O2267     Fe2616   2.085       .  S
O2267      C2280   1.274       .  A
C2268      C2446   1.494       .  S
C2268      O2273   1.266       .  A
C2269      C2430   1.478       .  S
O2270     Fe2615   1.968       .  S
O2271      C2274   1.263       .  A
O2272     Fe2615   2.075       .  S
O2272      C2274   1.269       .  A
O2273     Fe2617   2.062       .  S
C2274      C2337   1.469       .  S
O2275      C2280   1.266       .  A
O2276      C2278   1.272       .  A
C2277      C2302   1.464       .  S
C2277      O2279   1.268       .  A
C2278      C2321   1.483       .  S
O2279     Fe2617   2.068       .  S
C2280      C2353   1.502       .  S
C2281      C2282   1.409       .  A
C2281      C2286   1.409       .  A
C2281      C2305   1.471       .  S
C2282      C2283   1.402       .  A
C2282      H2287   1.083       .  S
C2283      C2284   1.403       .  A
C2284      C2285   1.403       .  A
C2284      H2288   1.083       .  S
C2285      C2286   1.405       .  A
C2286      H2289   1.083       .  S
C2290      C2291   1.417       .  A
C2290      C2295   1.415       .  A
C2290      C2318   1.491       .  S
C2291      C2292   1.404       .  A
C2291      H2296   1.083       .  S
C2292      C2293   1.402       .  A
C2293      C2294   1.400       .  A
C2293      H2297   1.083       .  S
C2294      C2295   1.401       .  A
C2295      H2298   1.081       .  S
C2299      C2300   1.348       .  D
C2301      C2302   1.401       .  A
C2301      C2306   1.406       .  A
C2301      H2308   1.083       .  S
C2302      C2303   1.418       .  A
C2303      C2304   1.397       .  A
C2303      C2310   1.519       .  S
C2304      C2305   1.398       .  A
C2304      H2309   1.086       .  S
C2305      C2306   1.416       .  A
C2306      C2307   1.513       .  S
C2307      F2311   1.385       .  S
C2307      F2312   1.382       .  S
C2307      F2313   1.378       .  S
C2310      F2314   1.377       .  S
C2310      F2671   1.384       .  S
C2310      F2316   1.384       .  S
F2315      C2666   1.384       .  S
C2317      C2318   1.406       .  A
C2317      C2322   1.403       .  A
C2317      H2324   1.083       .  S
C2318      C2319   1.424       .  A
C2319      C2320   1.407       .  A
C2319      C2326   1.518       .  S
C2320      C2321   1.403       .  A
C2320      H2325   1.085       .  S
C2321      C2322   1.420       .  A
C2322      C2323   1.523       .  S
C2323      F2327   1.383       .  S
C2323      F2684   1.382       .  S
C2323      F2329   1.382       .  S
C2326      F2330   1.383       .  S
C2326      F2331   1.379       .  S
C2326      F2332   1.384       .  S
F2328      C2679   1.382       .  S
C2333      C2334   1.400       .  A
C2333      C2338   1.401       .  A
C2333      H2340   1.083       .  S
C2334      C2335   1.416       .  A
C2335      C2336   1.410       .  A
C2335      C2342   1.517       .  S
C2336      C2337   1.403       .  A
C2336      H2341   1.083       .  S
C2337      C2338   1.414       .  A
C2338      C2339   1.520       .  S
C2339      F2343   1.384       .  S
C2339      F2700   1.383       .  S
C2339      F2345   1.383       .  S
C2342      F2346   1.381       .  S
C2342      F2347   1.382       .  S
C2342      F2348   1.384       .  S
F2344      C2695   1.383       .  S
C2349      C2350   1.414       .  A
C2349      C2354   1.407       .  A
C2349      H2356   1.080       .  S
C2350      C2351   1.434       .  A
C2351      C2352   1.413       .  A
C2351      C2358   1.520       .  S
C2352      C2353   1.405       .  A
C2352      H2357   1.083       .  S
C2353      C2354   1.422       .  A
C2354      C2355   1.525       .  S
C2355      F2359   1.385       .  S
C2355      F2360   1.383       .  S
C2355      F2361   1.384       .  S
C2358      F2362   1.383       .  S
C2358      F2363   1.382       .  S
C2358      F2364   1.386       .  S
C2365      C2366   1.402       .  A
C2365      C2370   1.403       .  A
C2365      H2372   1.084       .  S
C2366      C2367   1.422       .  A
C2367      C2368   1.413       .  A
C2367      C2374   1.516       .  S
C2368      C2369   1.404       .  A
C2368      H2373   1.085       .  S
C2369      C2370   1.417       .  A
C2370      C2371   1.516       .  S
C2371      F2375   1.385       .  S
C2371      F2376   1.382       .  S
C2371      F2733   1.380       .  S
C2374      F2378   1.381       .  S
C2374      F2379   1.383       .  S
C2374      F2380   1.384       .  S
F2377      C2727   1.380       .  S
C2381      C2382   1.405       .  A
C2381      C2386   1.404       .  A
C2381      H2388   1.083       .  S
C2382      C2383   1.421       .  A
C2383      C2384   1.408       .  A
C2383      C2390   1.518       .  S
C2384      C2385   1.404       .  A
C2384      H2389   1.083       .  S
C2385      C2386   1.418       .  A
C2386      C2387   1.521       .  S
C2387      F2391   1.383       .  S
C2387      F2392   1.383       .  S
C2387      F2393   1.384       .  S
C2390      F2394   1.382       .  S
C2390      F2395   1.383       .  S
C2390      F2396   1.384       .  S
C2397      C2398   1.404       .  A
C2397      C2402   1.404       .  A
C2397      H2404   1.083       .  S
C2398      C2399   1.422       .  A
C2399      C2400   1.409       .  A
C2399      C2406   1.518       .  S
C2400      C2401   1.405       .  A
C2400      H2405   1.084       .  S
C2401      C2402   1.422       .  A
C2402      C2403   1.523       .  S
C2403      F2407   1.385       .  S
C2403      F2408   1.383       .  S
C2403      F2409   1.383       .  S
C2406      F2410   1.382       .  S
C2406      F2411   1.383       .  S
C2406      F2412   1.384       .  S
C2413      C2414   1.401       .  A
C2413      C2418   1.398       .  A
C2413      H2420   1.079       .  S
C2414      C2415   1.418       .  A
C2415      C2416   1.410       .  A
C2415      C2422   1.518       .  S
C2416      C2417   1.405       .  A
C2416      H2421   1.080       .  S
C2417      C2418   1.419       .  A
C2418      C2419   1.525       .  S
C2419      F2423   1.385       .  S
C2419      F2425   1.384       .  S
C2422      F2426   1.383       .  S
C2422      F2427   1.382       .  S
C2422      F2428   1.385       .  S
C2429      C2430   1.399       .  A
C2429      C2434   1.402       .  A
C2429      H2436   1.083       .  S
C2430      C2431   1.417       .  A
C2431      C2432   1.410       .  A
C2431      C2438   1.519       .  S
C2432      C2433   1.408       .  A
C2432      H2437   1.082       .  S
C2433      C2434   1.426       .  A
C2434      C2435   1.526       .  S
C2438      F2442   1.383       .  S
C2438      F2443   1.383       .  S
C2438      F2444   1.385       .  S
C2445      C2446   1.404       .  A
C2445      C2450   1.404       .  A
C2445      H2452   1.082       .  S
C2446      C2447   1.423       .  A
C2447      C2448   1.411       .  A
C2447      C2454   1.520       .  S
C2448      C2449   1.407       .  A
C2448      H2453   1.081       .  S
C2449      C2450   1.425       .  A
C2450      C2451   1.526       .  S
C2454      F2458   1.384       .  S
C2454      F2459   1.382       .  S
C2454      F2460   1.385       .  S
C2461      C2462   1.404       .  A
C2461      C2466   1.408       .  A
C2461      H2468   1.083       .  S
C2462      C2463   1.421       .  A
C2463      C2464   1.401       .  A
C2463      C2470   1.525       .  S
C2464      C2465   1.402       .  A
C2464      H2469   1.083       .  S
C2465      C2466   1.421       .  A
C2466      C2467   1.519       .  S
C2467      F2471   1.385       .  S
C2467      F2472   1.383       .  S
C2467      F2473   1.383       .  S
C2470      F2475   1.383       .  S
C2470      F2476   1.385       .  S
C2477      C2478   1.403       .  A
C2477      C2482   1.412       .  A
C2477      H2484   1.083       .  S
C2478      C2479   1.417       .  A
C2479      C2480   1.403       .  A
C2479      C2486   1.520       .  S
C2480      C2481   1.399       .  A
C2480      H2485   1.083       .  S
C2481      C2482   1.418       .  A
C2482      C2483   1.517       .  S
C2483      F2487   1.384       .  S
C2483      F2488   1.383       .  S
C2483      F2489   1.382       .  S
C2486      F2490   1.381       .  S
C2486      F2491   1.383       .  S
C2486      F2492   1.385       .  S
C2493      C2494   1.346       .  D
C2493      C2550   1.501       .  S
C2493      C2581   1.497       .  S
C2494      C2639   1.493       .  S
C2494      C2648   1.495       .  S
C2495      C2496   1.348       .  D
C2496      C2552   1.500       .  S
C2496      C2583   1.499       .  S
C2497      C2498   1.344       .  D
C2497      C2501   1.499       .  S
C2497      C2510   1.501       .  S
C2498      C2532   1.489       .  S
C2499      C2500   1.410       .  A
C2499      C2504   1.413       .  A
C2499      C2834   1.478       .  S
C2500      C2501   1.403       .  A
C2500      H2505   1.083       .  S
C2501      C2502   1.402       .  A
C2502      C2503   1.403       .  A
C2502      H2506   1.082       .  S
C2503      C2504   1.407       .  A
C2504      H2507   1.083       .  S
C2508      C2509   1.416       .  A
C2508      C2513   1.409       .  A
C2508      C2818   1.483       .  S
C2509      C2510   1.404       .  A
C2509      H2514   1.083       .  S
C2510      C2511   1.401       .  A
C2511      C2512   1.402       .  A
C2511      H2515   1.082       .  S
C2512      C2513   1.400       .  A
C2513      H2516   1.083       .  S
C2517      C2518   1.344       .  D
C2518      C2641   1.499       .  S
C2518      C2650   1.507       .  S
C2519      C2520   1.420       .  A
C2519      C2524   1.412       .  A
C2519      C2805   1.495       .  S
C2520      C2521   1.406       .  A
C2520      H2525   1.082       .  S
C2521      C2538   1.507       .  S
C2521      C2522   1.400       .  A
C2522      C2523   1.402       .  A
C2522      H2526   1.082       .  S
C2523      C2524   1.403       .  A
C2524      H2527   1.081       .  S
C2528      C2529   1.419       .  A
C2528      C2533   1.410       .  A
C2528      C2789   1.490       .  S
C2529      C2530   1.407       .  A
C2529      H2534   1.082       .  S
C2530      C2538   1.506       .  S
C2530      C2531   1.402       .  A
C2531      H2535   1.082       .  S
C2537      C2538   1.347       .  D
C2537      C2541   1.500       .  S
C2537      C2590   1.503       .  S
C2539      C2540   1.414       .  A
C2539      C2544   1.408       .  A
C2539      C2773   1.480       .  S
C2540      C2541   1.406       .  A
C2540      H2545   1.083       .  S
C2541      C2542   1.403       .  A
C2542      H2546   1.083       .  S
C2543      C2656   1.490       .  S
C2548      C2549   1.414       .  A
C2548      C2553   1.416       .  A
C2548      C2754   1.490       .  S
C2549      C2550   1.402       .  A
C2549      H2554   1.081       .  S
C2550      C2551   1.404       .  A
C2551      C2552   1.404       .  A
C2551      H2555   1.082       .  S
C2552      C2553   1.404       .  A
C2553      H2556   1.083       .  S
Fe2557     O2573   2.074       .  S
Fe2557     O2563   2.053       .  S
Fe2558     O2561   2.093       .  S
Fe2558     O2565   2.055       .  S
Fe2559     O2577   2.059       .  S
Fe2559     O2571   2.064       .  S
O2560      C2567   1.267       .  A
O2561      C2575   1.274       .  A
O2562      C2567   1.271       .  A
O2563      C2566   1.264       .  A
O2564      C2576   1.268       .  A
O2565      C2578   1.266       .  A
C2566      C2821   1.483       .  S
C2566      O2571   1.269       .  A
C2567      C2837   1.476       .  S
O2569      C2572   1.273       .  A
O2570      C2572   1.265       .  A
C2572      C2757   1.486       .  S
O2573      C2578   1.270       .  A
O2574      C2576   1.266       .  A
C2575      C2725   1.485       .  S
C2575      O2577   1.268       .  A
C2576      C2770   1.481       .  S
C2578      C2741   1.481       .  S
C2579      C2580   1.414       .  A
C2579      C2584   1.414       .  A
C2579      C2738   1.487       .  S
C2580      C2581   1.403       .  A
C2580      H2585   1.084       .  S
C2581      C2582   1.401       .  A
C2582      C2583   1.401       .  A
C2582      H2586   1.083       .  S
C2583      C2584   1.402       .  A
C2584      H2587   1.081       .  S
C2588      C2589   1.415       .  A
C2588      C2593   1.416       .  A
C2588      C2722   1.490       .  S
C2589      C2590   1.405       .  A
C2589      H2594   1.082       .  S
C2590      C2591   1.404       .  A
C2591      C2592   1.404       .  A
C2591      H2595   1.083       .  S
C2592      C2593   1.406       .  A
C2593      H2596   1.083       .  S
C2597      C2598   1.427       .  A
C2597      C2602   1.423       .  A
C2597      C2706   1.522       .  S
C2598      C2599   1.408       .  A
C2598      H2603   1.083       .  S
C2599      C2600   1.400       .  A
C2600      C2601   1.398       .  A
C2600      H2604   1.082       .  S
C2601      C2655   1.510       .  S
C2601      C2602   1.404       .  A
C2602      H2605   1.066       .  S
C2606      C2607   1.407       .  A
C2606      C2611   1.412       .  A
C2606      C2690   1.473       .  S
C2607      C2608   1.398       .  A
C2607      H2612   1.082       .  S
C2608      C2609   1.403       .  A
C2609      C2610   1.403       .  A
C2609      H2613   1.083       .  S
C2610      C2655   1.499       .  S
C2610      C2611   1.407       .  A
C2611      H2614   1.083       .  S
Fe2615     O2631   2.059   1_554  S
Fe2615     O2621   2.069   1_554  S
Fe2616     O2627   2.047       .  S
Fe2616     O2632   2.076       .  S
Fe2616     O2626   1.974       .  S
Fe2617     O2622   2.050       .  S
Fe2617     O2618   2.069       .  S
Fe2617     O2626   1.974       .  S
O2618      C2625   1.268       .  A
O2619      C2633   1.265       .  A
O2620      C2625   1.269       .  A
O2621      C2624   1.271       .  A
O2622      C2634   1.266       .  A
O2623      C2636   1.274       .  A
C2624      C2802   1.494       .  S
C2624      O2629   1.266       .  A
C2625      C2786   1.478       .  S
O2627      C2630   1.263       .  A
O2628      C2630   1.269       .  A
C2630      C2693   1.469       .  S
O2631      C2636   1.266       .  A
O2632      C2634   1.272       .  A
C2633      C2658   1.464       .  S
C2633      O2635   1.268       .  A
C2634      C2677   1.483       .  S
C2636      C2709   1.502       .  S
C2637      C2638   1.409       .  A
C2637      C2642   1.409       .  A
C2637      C2661   1.471       .  S
C2638      C2639   1.402       .  A
C2638      H2643   1.083       .  S
C2639      C2640   1.403       .  A
C2640      C2641   1.403       .  A
C2640      H2644   1.083       .  S
C2641      C2642   1.405       .  A
C2642      H2645   1.083       .  S
C2646      C2647   1.417       .  A
C2646      C2651   1.415       .  A
C2646      C2674   1.491       .  S
C2647      C2648   1.404       .  A
C2647      H2652   1.083       .  S
C2648      C2649   1.402       .  A
C2649      C2650   1.400       .  A
C2649      H2653   1.083       .  S
C2650      C2651   1.401       .  A
C2651      H2654   1.081       .  S
C2655      C2656   1.348       .  D
C2657      C2658   1.401       .  A
C2657      C2662   1.406       .  A
C2657      H2664   1.083       .  S
C2658      C2659   1.418       .  A
C2659      C2660   1.397       .  A
C2659      C2666   1.519       .  S
C2660      C2661   1.398       .  A
C2660      H2665   1.086       .  S
C2661      C2662   1.416       .  A
C2662      C2663   1.513       .  S
C2663      F2667   1.385       .  S
C2663      F2668   1.382       .  S
C2663      F2669   1.378       .  S
C2666      F2670   1.377       .  S
C2666      F2672   1.384       .  S
C2673      C2674   1.406       .  A
C2673      C2678   1.403       .  A
C2673      H2680   1.083       .  S
C2674      C2675   1.424       .  A
C2675      C2676   1.407       .  A
C2675      C2682   1.518       .  S
C2676      C2677   1.403       .  A
C2676      H2681   1.085       .  S
C2677      C2678   1.420       .  A
C2678      C2679   1.523       .  S
C2679      F2683   1.383       .  S
C2679      F2685   1.382       .  S
C2682      F2686   1.383       .  S
C2682      F2687   1.379       .  S
C2682      F2688   1.384       .  S
C2689      C2690   1.400       .  A
C2689      C2694   1.401       .  A
C2689      H2696   1.083       .  S
C2690      C2691   1.416       .  A
C2691      C2692   1.410       .  A
C2691      C2698   1.517       .  S
C2692      C2693   1.403       .  A
C2692      H2697   1.083       .  S
C2693      C2694   1.414       .  A
C2694      C2695   1.520       .  S
C2695      F2699   1.384       .  S
C2695      F2701   1.383       .  S
C2698      F2702   1.381       .  S
C2698      F2703   1.382       .  S
C2698      F2704   1.384       .  S
C2705      C2706   1.414       .  A
C2705      C2710   1.407       .  A
C2705      H2712   1.080       .  S
C2706      C2707   1.434       .  A
C2707      C2708   1.413       .  A
C2707      C2714   1.520       .  S
C2708      C2709   1.405       .  A
C2708      H2713   1.083       .  S
C2709      C2710   1.422       .  A
C2710      C2711   1.525       .  S
C2711      F2715   1.385       .  S
C2711      F2716   1.383       .  S
C2711      F2717   1.384       .  S
C2714      F2718   1.383       .  S
C2714      F2719   1.382       .  S
C2714      F2720   1.386       .  S
C2721      C2722   1.402       .  A
C2721      C2726   1.403       .  A
C2721      H2728   1.084       .  S
C2722      C2723   1.422       .  A
C2723      C2724   1.413       .  A
C2723      C2730   1.516       .  S
C2724      C2725   1.404       .  A
C2724      H2729   1.085       .  S
C2725      C2726   1.417       .  A
C2726      C2727   1.516       .  S
C2727      F2731   1.385       .  S
C2727      F2732   1.382       .  S
C2730      F2734   1.381       .  S
C2730      F2735   1.383       .  S
C2730      F2736   1.384       .  S
C2737      C2738   1.405       .  A
C2737      C2742   1.404       .  A
C2737      H2744   1.083       .  S
C2738      C2739   1.421       .  A
C2739      C2740   1.408       .  A
C2739      C2746   1.518       .  S
C2740      C2741   1.404       .  A
C2740      H2745   1.083       .  S
C2741      C2742   1.418       .  A
C2742      C2743   1.521       .  S
C2743      F2747   1.383       .  S
C2743      F2748   1.383       .  S
C2743      F2749   1.384       .  S
C2746      F2750   1.382       .  S
C2746      F2751   1.383       .  S
C2746      F2752   1.384       .  S
C2753      C2754   1.404       .  A
C2753      C2758   1.404       .  A
C2753      H2760   1.083       .  S
C2754      C2755   1.422       .  A
C2755      C2756   1.409       .  A
C2755      C2762   1.518       .  S
C2756      C2757   1.405       .  A
C2756      H2761   1.084       .  S
C2757      C2758   1.422       .  A
C2758      C2759   1.523       .  S
C2759      F2763   1.385       .  S
C2759      F2764   1.383       .  S
C2759      F2765   1.383       .  S
C2762      F2766   1.382       .  S
C2762      F2767   1.383       .  S
C2762      F2768   1.384       .  S
C2769      C2770   1.401       .  A
C2769      C2774   1.398       .  A
C2769      H2776   1.079       .  S
C2770      C2771   1.418       .  A
C2771      C2772   1.410       .  A
C2771      C2778   1.518       .  S
C2772      C2773   1.405       .  A
C2772      H2777   1.080       .  S
C2773      C2774   1.419       .  A
C2774      C2775   1.525       .  S
C2775      F2779   1.385       .  S
C2775      F2781   1.384       .  S
C2778      F2782   1.383       .  S
C2778      F2783   1.382       .  S
C2778      F2784   1.385       .  S
C2785      C2786   1.399       .  A
C2785      C2790   1.402       .  A
C2785      H2792   1.083       .  S
C2786      C2787   1.417       .  A
C2787      C2788   1.410       .  A
C2787      C2794   1.519       .  S
C2788      C2789   1.408       .  A
C2788      H2793   1.082       .  S
C2789      C2790   1.426       .  A
C2790      C2791   1.526       .  S
C2794      F2798   1.383       .  S
C2794      F2799   1.383       .  S
C2794      F2800   1.385       .  S
C2801      C2802   1.404       .  A
C2801      C2806   1.404       .  A
C2801      H2808   1.082       .  S
C2802      C2803   1.423       .  A
C2803      C2804   1.411       .  A
C2803      C2810   1.520       .  S
C2804      C2805   1.407       .  A
C2804      H2809   1.081       .  S
C2805      C2806   1.425       .  A
C2806      C2807   1.526       .  S
C2810      F2814   1.384       .  S
C2810      F2815   1.382       .  S
C2810      F2816   1.385       .  S
C2817      C2818   1.404       .  A
C2817      C2822   1.408       .  A
C2817      H2824   1.083       .  S
C2818      C2819   1.421       .  A
C2819      C2820   1.401       .  A
C2819      C2826   1.525       .  S
C2820      C2821   1.402       .  A
C2820      H2825   1.083       .  S
C2821      C2822   1.421       .  A
C2822      C2823   1.519       .  S
C2823      F2827   1.385       .  S
C2823      F2828   1.383       .  S
C2823      F2829   1.383       .  S
C2826      F2831   1.383       .  S
C2826      F2832   1.385       .  S
C2833      C2834   1.403       .  A
C2833      C2838   1.412       .  A
C2833      H2840   1.083       .  S
C2834      C2835   1.417       .  A
C2835      C2836   1.403       .  A
C2835      C2842   1.520       .  S
C2836      C2837   1.399       .  A
C2836      H2841   1.083       .  S
C2837      C2838   1.418       .  A
C2838      C2839   1.517       .  S
C2839      F2843   1.384       .  S
C2839      F2844   1.383       .  S
C2839      F2845   1.382       .  S
C2842      F2846   1.381       .  S
C2842      F2847   1.383       .  S
C2842      F2848   1.385       .  S
