geometry optimzed in LAMMPS
_audit_creation_date              2020-11-30 
_audit_creation_method            'lammps2cif' 
_symmetry_space_group_name_H-M    'P1' 
_symmetry_Int_Tables_number       1 
_symmetry_cell_setting            triclinic 
loop_ 
_symmetry_equiv_pos_as_xyz 
  x,y,z 
_cell_length_a                    44.16561612 
_cell_length_b                    35.886429706063616 
_cell_length_c                    38.51293061118527 
_cell_angle_alpha                 89.89128350074515 
_cell_angle_beta                  90.29120372087293 
_cell_angle_gamma                 90.30497592935295 
loop_ 
_atom_site_label 
_atom_site_type_symbol 
_atom_site_fract_x 
_atom_site_fract_y 
_atom_site_fract_z 
_atom_site_charge 
O1          O  0.05770982  0.91532708  0.34622612    -0.85600
O2          O  0.11161837  0.95466598  0.33884803    -0.82600
C3          C  0.10425108  0.98758459  0.34652158     0.97900
O4          O  0.09383511  0.99459779  0.37609175    -0.82700
O5          O  0.07199074  0.98310345  0.44321862    -0.85300
C6          C  0.04468218  0.97120417  0.44291378     1.02400
O7          O  0.03831844  0.94052423  0.42919710    -0.78100
O8          O  0.04138159  0.88025936  0.38887869    -0.78300
C9          C  0.03621075  0.89893167  0.36143633     1.02300
O10         O  0.09157288  0.85224835  0.37319386    -0.85600
O11         O  0.14169423  0.89669669  0.37437793    -0.82700
C12         C  0.15964553  0.92255709  0.38292134     0.97900
O13         O  0.14947534  0.95388351  0.39322847    -0.82700
O14         O  0.12680087  0.94098757  0.45714404    -0.85300
C15         C  0.11017764  0.93104578  0.48176142     1.02400
O16         O  0.08471950  0.91600777  0.47516189    -0.78100
O17         O  0.09279792  0.85457424  0.42985222    -0.78300
C18         C  0.09529310  0.83602239  0.40219329     1.02300
Cr19       Cr  0.09986318  0.90591445  0.36081012     1.93700
Cr20       Cr  0.10915732  0.96543214  0.41633034     1.93200
Cr21       Cr  0.06646433  0.89913592  0.42907684     1.39100
O22         O  0.09194328  0.92374977  0.40228123    -1.23300
O23         O  0.04251486  0.63008171  0.39184275    -0.85600
O24         O  0.03986394  0.56962051  0.43202086    -0.82600
C25         C  0.04630406  0.53859973  0.44492449     0.97900
O26         O  0.07371866  0.52738748  0.44585140    -0.82700
O27         O  0.09535732  0.51523449  0.37878833    -0.85300
C28         C  0.10441177  0.52245884  0.34856323     1.02400
O29         O  0.11111234  0.55560426  0.34027698    -0.78100
O30         O  0.05780816  0.59513455  0.34904644    -0.78300
C31         C  0.03663632  0.61131118  0.36470135     1.02300
O32         O  0.09444883  0.65586394  0.43181304    -0.85600
O33         O  0.08663049  0.59474972  0.47718664    -0.82700
C34         C  0.11247675  0.58100345  0.48333421     0.97900
O35         O  0.12872778  0.57110083  0.45850389    -0.82700
O36         O  0.15053643  0.55723435  0.39422444    -0.85300
C37         C  0.16037198  0.58826337  0.38243225     1.02400
O38         O  0.14229531  0.61400952  0.37485448    -0.78100
O39         O  0.09269028  0.65837076  0.37513975    -0.78300
C40         C  0.09641868  0.67459488  0.40417672     1.02300
Cr41       Cr  0.06800669  0.61122175  0.43145477     1.93700
Cr42       Cr  0.11069384  0.54550909  0.41840877     1.93200
Cr43       Cr  0.10025034  0.60458323  0.36252829     1.39100
O44         O  0.09304848  0.58674745  0.40423702    -1.23300
O45         O  0.29077923  0.87836580  0.32533135    -0.85600
O46         O  0.28767945  0.93943399  0.28535464    -0.82600
C47         C  0.29438232  0.97000469  0.27155856     0.97900
O48         O  0.32199137  0.98071353  0.27003198    -0.82700
O49         O  0.34501633  0.99268202  0.33646778    -0.85300
C50         C  0.35475110  0.98554008  0.36646188     1.02400
O51         O  0.36142720  0.95253068  0.37484761    -0.78100
O52         O  0.30730745  0.91350718  0.36768918    -0.78300
C53         C  0.28566159  0.89711102  0.35253322     1.02300
O54         O  0.34128413  0.85304332  0.28415598    -0.85600
O55         O  0.33271402  0.91410674  0.23918928    -0.82700
C56         C  0.35852496  0.92761285  0.23219832     0.97900
O57         O  0.37609611  0.93644308  0.25642894    -0.82700
O58         O  0.39953003  0.95054222  0.32011942    -0.85300
C59         C  0.40947777  0.91934142  0.33114443     1.02400
O60         O  0.39136229  0.89400094  0.34031643    -0.78100
O61         O  0.34110510  0.85001858  0.34091564    -0.78300
C62         C  0.34424777  0.83426648  0.31166545     1.02300
Cr63       Cr  0.31526197  0.89746076  0.28520348     1.93700
Cr64       Cr  0.35930840  0.96241616  0.29682777     1.93200
Cr65       Cr  0.34949349  0.90369994  0.35332352     1.39100
O66         O  0.34146207  0.92150443  0.31169839    -1.23300
O67         O  0.30769158  0.59291335  0.36277759    -0.85600
O68         O  0.36113530  0.55452914  0.37157774    -0.82600
C69         C  0.35441949  0.52165791  0.36258578     0.97900
O70         O  0.34618335  0.51481547  0.33197959    -0.82700
O71         O  0.32426090  0.52704069  0.26531651    -0.85300
C72         C  0.29666722  0.53747463  0.26696163     1.02400
O73         O  0.29003587  0.56799253  0.28045372    -0.78100
O74         O  0.29185844  0.62832873  0.32035308    -0.78300
C75         C  0.28631886  0.60914556  0.34733228     1.02300
O76         O  0.34179652  0.65726263  0.33745461    -0.85600
O77         O  0.39194433  0.61407860  0.33845353    -0.82700
C78         C  0.41033188  0.58894395  0.33042178     0.97900
O79         O  0.40093408  0.55808318  0.31773799    -0.82700
O80         O  0.37869369  0.57194855  0.25282263    -0.85300
C81         C  0.36145480  0.58064827  0.22822092     1.02400
O82         O  0.33564222  0.59410379  0.23489381    -0.78100
O83         O  0.34314424  0.65515113  0.28065269    -0.78300
C84         C  0.34507960  0.67361904  0.30841064     1.02300
Cr85       Cr  0.34995813  0.60354184  0.34979726     1.93700
Cr86       Cr  0.36122960  0.54570072  0.29300736     1.93200
Cr87       Cr  0.31736097  0.61018937  0.28075636     1.39100
O88         O  0.34308069  0.58624608  0.30771584    -1.23300
O89         O  0.43442577  0.41585471  0.11277134    -0.85600
O90         O  0.38133952  0.45602483  0.12113055    -0.82600
C91         C  0.38834998  0.48885134  0.11219272     0.97900
O92         O  0.39761247  0.49520859  0.08191647    -0.82700
O93         O  0.41803546  0.48151332  0.01476156    -0.85300
C94         C  0.44525170  0.46971786  0.01520558     1.02400
O95         O  0.45151224  0.43877581  0.02842503    -0.78100
O96         O  0.44902840  0.37977634  0.07045357    -0.78300
C97         C  0.45536176  0.39919927  0.09710882     1.02300
O98         O  0.39905878  0.35224436  0.08885079    -0.85600
O99         O  0.34944269  0.39729295  0.08841242    -0.82700
C100        C  0.33163273  0.42313689  0.07996294     0.97900
O101        O  0.34176011  0.45385386  0.06788544    -0.82700
O102        O  0.36254352  0.43856026  0.50376658    -0.85300
C103        C  0.37865175  0.42870664  0.47884332     1.02400
O104        O  0.40395679  0.41340003  0.48491210    -0.78100
O105        O  0.39648674  0.35266253  0.03220230    -0.78300
C106        C  0.39513504  0.33481776  0.06049329     1.02300
Cr107      Cr  0.39176152  0.40645944  0.10002495     1.93700
Cr108      Cr  0.38136617  0.46447693  0.04310369     1.93200
Cr109      Cr  0.42305803  0.39751942  0.03072828     1.39100
O110        O  0.39863805  0.42311779  0.05778377    -1.23300
O111        O  0.45027481  0.12778539  0.07556677    -0.85600
O112        O  0.45321193  0.06700040  0.03551404    -0.82600
C113        C  0.44670796  0.03654434  0.02137350     0.97900
O114        O  0.41931863  0.02497730  0.02073486    -0.82700
O115        O  0.39723944  0.01345614  0.08776066    -0.85300
C116        C  0.38704593  0.02062601  0.11741100     1.02400
O117        O  0.37992370  0.05360730  0.12515692    -0.78100
O118        O  0.43384789  0.09278932  0.11810370    -0.78300
C119        C  0.45538460  0.10929626  0.10307648     1.02300
O120        O  0.39942856  0.15376070  0.03424463    -0.85600
O121        O  0.40752553  0.09206888  0.48939603    -0.82700
C122        C  0.38208332  0.07733137  0.48238086     0.97900
O123        O  0.36485956  0.06767689  0.50655442    -0.82700
O124        O  0.34189846  0.05444043  0.07061826    -0.85300
C125        C  0.33180086  0.08560707  0.08137181     1.02400
O126        O  0.34978579  0.11152131  0.08975403    -0.78100
O127        O  0.39998312  0.15624701  0.09091907    -0.78300
C128        C  0.39689570  0.17251944  0.06177638     1.02300
Cr129      Cr  0.42542369  0.10885834  0.03536707     1.93700
Cr130      Cr  0.38218670  0.04289854  0.04753771     1.93200
Cr131      Cr  0.39167334  0.10236324  0.10330854     1.39100
O132        O  0.39958786  0.08447574  0.06185788    -1.23300
O133        O  0.19914926  0.37999318  0.13965450    -0.85600
O134        O  0.20233095  0.43883940  0.18116445    -0.82600
C135        C  0.19632050  0.46986664  0.19406181     0.97900
O136        O  0.16900498  0.48144683  0.19527144    -0.82700
O137        O  0.14768511  0.49576820  0.12925219    -0.85300
C138        C  0.13923733  0.48997903  0.09860809     1.02400
O139        O  0.13219564  0.45745437  0.08884448    -0.78100
O140        O  0.18498468  0.41716529  0.09772541    -0.78300
C141        C  0.20567991  0.39971513  0.11330218     1.02300
O142        O  0.14660012  0.35366696  0.17752593    -0.85600
O143        O  0.15530229  0.41425114  0.22541370    -0.82700
C144        C  0.13002232  0.42944024  0.23169924     0.97900
O145        O  0.11332259  0.43836848  0.20676519    -0.82700
O146        O  0.09177214  0.45366095  0.14230954    -0.85300
C147        C  0.08206766  0.42320059  0.12905255     1.02400
O148        O  0.10015680  0.39798286  0.12038188    -0.78100
O149        O  0.14937587  0.35320404  0.12081088    -0.78300
C150        C  0.14511159  0.33590031  0.14920195     1.02300
Cr151      Cr  0.17362748  0.39795338  0.17929159     1.93700
Cr152      Cr  0.13169684  0.46455543  0.16733977     1.93200
Cr153      Cr  0.14235967  0.40756843  0.10971661     1.39100
O154        O  0.14906305  0.42365187  0.15225492    -1.23300
O155        O  0.18424999  0.09335181  0.09703805    -0.85600
O156        O  0.13113911  0.05246819  0.09016028    -0.82600
C157        C  0.13800863  0.01982635  0.09964151     0.97900
O158        O  0.14675532  0.01364995  0.13023919    -0.82700
O159        O  0.16957724  0.02874488  0.19631458    -0.85300
C160        C  0.19702733  0.04009170  0.19495142     1.02400
O161        O  0.20342096  0.07051989  0.18065699    -0.78100
O162        O  0.19976692  0.13006290  0.13866851    -0.78300
C163        C  0.20552587  0.11054110  0.11212713     1.02300
O164        O  0.14910319  0.15694535  0.12149719    -0.85600
O165        O  0.09949565  0.11131674  0.12283314    -0.82700
C166        C  0.08171580  0.08602065  0.13309843     0.97900
O167        O  0.09203005  0.05539588  0.14489136    -0.82700
O168        O  0.11479772  0.07246740  0.20814140    -0.85300
C169        C  0.13206219  0.08201249  0.23240086     1.02400
O170        O  0.15761130  0.09623465  0.22538265    -0.78100
O171        O  0.14850246  0.15597982  0.17825260    -0.78300
C172        C  0.14590548  0.17393923  0.15018876     1.02300
Cr173      Cr  0.14173461  0.10242476  0.11060404     1.93700
Cr174      Cr  0.13216667  0.04532584  0.16877055     1.93200
Cr175      Cr  0.17514237  0.11183740  0.17901200     1.39100
O176        O  0.14963559  0.08614180  0.15283289    -1.23300
C177        C  0.14136525  0.29452662  0.14922172    -0.05700
C178        C  0.14118470  0.27492742  0.18087031    -0.33100
C179        C  0.14133006  0.23583930  0.18173185     0.36100
C180        C  0.14179339  0.21520878  0.15050718    -0.06100
C181        C  0.14035619  0.23478818  0.11888400    -0.33000
C182        C  0.14025621  0.27385499  0.11800079     0.36000
H183        H  0.14188919  0.28991213  0.20525255     0.16400
O184        O  0.14235842  0.21830797  0.21337450    -0.60500
H185        H  0.14023727  0.21983371  0.09447335     0.16400
O186        O  0.13943373  0.29139437  0.08632534    -0.60600
H187        H  0.16062434  0.29120144  0.07791524     0.43400
H188        H  0.12088799  0.21426951  0.21986593     0.43300
C189        C  0.48670403  0.10562860  0.11605958    -0.05700
C190        C  0.99601226  0.07221551  0.13189022    -0.33100
C191        C  0.02674703  0.06553305  0.13871650     0.36100
C192        C  0.04867957  0.09255109  0.12960999    -0.06100
C193        C  0.03888751  0.12677982  0.11573449    -0.33000
C194        C  0.00837036  0.13337286  0.10897792     0.36000
H195        H  0.97961277  0.05045913  0.13742418     0.16400
O196        O  0.03503743  0.03196191  0.15282309    -0.60500
H197        H  0.05501424  0.14848042  0.10913809     0.16400
O198        O  0.50010538  0.16673301  0.09440023    -0.60600
H199        H  0.49377699  0.18248712  0.11417766     0.43400
H200        H  0.03556144  0.03615934  0.17826826     0.43300
C201        C  0.29894725  0.09215525  0.08639437    -0.05700
C202        C  0.29014730  0.12422893  0.10465156    -0.33100
C203        C  0.25984094  0.13141144  0.11167937     0.36100
C204        C  0.23720707  0.10641617  0.10041789    -0.06100
C205        C  0.24569202  0.07493994  0.08104819    -0.33000
C206        C  0.27630256  0.06751090  0.07426032     0.36000
H207        H  0.30689958  0.14381822  0.11434553     0.16400
O208        O  0.25277079  0.16257709  0.13048580    -0.60500
H209        H  0.22867931  0.05518553  0.07230914     0.16400
O210        O  0.28370827  0.03629872  0.05570984    -0.60600
H211        H  0.28194734  0.01530560  0.07237423     0.43400
H212        H  0.25088091  0.18287188  0.11311518     0.43300
C213        C  0.29898373  0.41718260  0.08642405    -0.05700
C214        C  0.29036179  0.38712113  0.10773163    -0.33100
C215        C  0.26013071  0.38029706  0.11554733     0.36100
C216        C  0.23746274  0.40367247  0.10202287    -0.06100
C217        C  0.24585804  0.43334865  0.08002134    -0.33000
C218        C  0.27637349  0.44039007  0.07240324     0.36000
H219        H  0.30720286  0.36886482  0.11906713     0.16400
O220        O  0.25320679  0.35111120  0.13719507    -0.60500
H221        H  0.22883192  0.45190752  0.06951317     0.16400
O222        O  0.28370042  0.46963422  0.05099880    -0.60600
H223        H  0.28406690  0.49188171  0.06623235     0.43400
H224        H  0.24909404  0.32971351  0.12158231     0.43300
C225        C  0.48733343  0.40349454  0.10835025    -0.05700
C226        C  0.00965595  0.38399568  0.09027248    -0.33100
C227        C  0.04028441  0.39020657  0.09688113     0.36100
C228        C  0.04948111  0.41665498  0.12206199    -0.06100
C229        C  0.02727160  0.43584682  0.14067826    -0.33000
C230        C  0.99639215  0.42942278  0.13407900     0.36000
H231        H  0.50347783  0.36426734  0.07015041     0.16400
O232        O  0.06103369  0.37139373  0.07722014    -0.60500
H233        H  0.03382368  0.45584541  0.16041011     0.16400
O234        O  0.47538962  0.44889044  0.15274896    -0.60600
H235        H  0.97327429  0.47308971  0.14052075     0.43400
H236        H  0.06288963  0.34651396  0.08827957     0.43300
C237        C  0.39186791  0.29328061  0.06072036    -0.05700
C238        C  0.39111409  0.27323282  0.02932198    -0.33100
C239        C  0.39144928  0.23403012  0.02904463     0.36100
C240        C  0.39282538  0.21383530  0.06057376    -0.06100
C241        C  0.39206029  0.23388520  0.09187041    -0.33000
C242        C  0.39167132  0.27291265  0.09219532     0.36000
H243        H  0.39106560  0.28795410  0.50474264     0.16400
O244        O  0.39152107  0.21596857  0.49770260    -0.60500
H245        H  0.39262592  0.21932882  0.11653184     0.16400
O246        O  0.39148223  0.29073164  0.12367347    -0.60600
H247        H  0.41296883  0.29160652  0.13127035     0.43400
H248        H  0.36993789  0.21037224  0.49262094     0.43300
C249        C  0.35895525  0.49102689  0.38746346    -0.05700
C250        C  0.33510852  0.47898363  0.40851687    -0.33100
C251        C  0.34054980  0.45468597  0.43638596     0.36100
C252        C  0.37032121  0.44225173  0.44361027    -0.06100
C253        C  0.39358119  0.45189082  0.42043164    -0.33000
C254        C  0.38809935  0.47638188  0.39275554     0.36000
H255        H  0.31256995  0.49004190  0.40454196     0.16400
O256        O  0.31703348  0.44575857  0.45804451    -0.60500
H257        H  0.41665844  0.44330832  0.42558299     0.16400
O258        O  0.41190251  0.48828350  0.37277486    -0.60600
H259        H  0.41127469  0.47233918  0.35178767     0.43400
H260        H  0.30987996  0.42090733  0.45020636     0.43300
C261        C  0.38212265  0.51973259  0.13642308    -0.05700
C262        C  0.40567142  0.53777481  0.15435268    -0.33100
C263        C  0.39929329  0.56123842  0.18263631     0.36100
C264        C  0.36898920  0.56744222  0.19275043    -0.06100
C265        C  0.34555654  0.55223386  0.17235449    -0.33000
C266        C  0.35193507  0.52825599  0.14473366     0.36000
H267        H  0.42900097  0.53176697  0.14795680     0.16400
O268        O  0.42279366  0.57686016  0.20105863    -0.60500
H269        H  0.32213781  0.55612158  0.17972690     0.16400
O270        O  0.32842134  0.51114240  0.12754325    -0.60600
H271        H  0.32344542  0.52799861  0.10792310     0.43400
H272        H  0.43107016  0.55640706  0.21556360     0.43300
C273        C  0.27141772  0.51708059  0.25011859    -0.05700
C274        C  0.27642912  0.49736697  0.21939217    -0.33100
C275        C  0.25199628  0.48393374  0.19969218     0.36100
C276        C  0.22181995  0.48980600  0.21080548    -0.06100
C277        C  0.21684449  0.50940362  0.24153776    -0.33000
C278        C  0.24123540  0.52289428  0.26119380     0.36000
H279        H  0.29926800  0.49346377  0.20995559     0.16400
O280        O  0.25791440  0.46476943  0.16969407    -0.60500
H281        H  0.19402274  0.51313336  0.25109145     0.16400
O282        O  0.23535066  0.54094061  0.29181734    -0.60600
H283        H  0.22809732  0.56605028  0.28502914     0.43400
H284        H  0.25733944  0.48373780  0.15094444     0.43300
C285        C  0.26954290  0.99047293  0.25400435    -0.05700
C286        C  0.27601903  0.01360649  0.22565425    -0.33100
C287        C  0.25268088  0.02826270  0.20513272     0.36100
C288        C  0.22198130  0.02035805  0.21305078    -0.06100
C289        C  0.21551265  0.99733317  0.24147778    -0.33000
C290        C  0.23883752  0.98274444  0.26203684     0.36000
H291        H  0.29929165  0.01938742  0.21858020     0.16400
O292        O  0.26025281  0.05036321  0.17734674    -0.60500
H293        H  0.19224485  0.99139888  0.24844439     0.16400
O294        O  0.23125517  0.96063424  0.28981399    -0.60600
H295        H  0.23039474  0.97776239  0.30996839     0.43400
H296        H  0.26174397  0.03311812  0.15733873     0.43300
C297        C  0.34845525  0.79341731  0.30969112    -0.05700
C298        C  0.34055739  0.77451046  0.27901661    -0.33100
C299        C  0.34034734  0.73555482  0.27774091     0.36100
C300        C  0.34857929  0.71466576  0.30737566    -0.06100
C301        C  0.35798478  0.73362663  0.33746095    -0.33000
C302        C  0.35809620  0.77257260  0.33874908     0.36000
H303        H  0.33310015  0.78987401  0.25631604     0.16400
O304        O  0.33072033  0.71833775  0.24785691    -0.60500
H305        H  0.36473120  0.71819439  0.36041518     0.16400
O306        O  0.36696810  0.78986204  0.36888026    -0.60600
H307        H  0.38910582  0.79372130  0.36651228     0.43400
H308        H  0.30838893  0.71648673  0.24997386     0.43300
C309        C  0.36549278  0.94143140  0.19697407    -0.05700
C310        C  0.34251197  0.96058720  0.17927229    -0.33100
C311        C  0.34950784  0.98552384  0.15260319     0.36100
C312        C  0.37972029  0.99045895  0.14202444    -0.06100
C313        C  0.40249059  0.96868675  0.15725702    -0.33000
C314        C  0.39562214  0.94479657  0.18517575     0.36000
H315        H  0.31933528  0.95903308  0.18829465     0.16400
O316        O  0.32683481  0.00679213  0.13849019    -0.60500
H317        H  0.42580261  0.97210241  0.14916823     0.16400
O318        O  0.41854753  0.92596118  0.20163108    -0.60600
H319        H  0.42854221  0.94459044  0.21690335     0.43400
H320        H  0.31926429  0.99233452  0.11830764     0.43300
C321        C  0.36155053  0.01577157  0.39108828    -0.05700
C322        C  0.33819868  0.03481431  0.40782630    -0.33100
C323        C  0.34472694  0.05852284  0.43587957     0.36100
C324        C  0.37498451  0.06390565  0.44695628    -0.06100
C325        C  0.39838775  0.04744858  0.42790320    -0.33000
C326        C  0.39181556  0.02294999  0.40065245     0.36000
H327        H  0.31482957  0.02944355  0.40064107     0.16400
O328        O  0.32128564  0.07416914  0.45383209    -0.60500
H329        H  0.42174209  0.05070241  0.43618990     0.16400
O330        O  0.41510252  0.00503258  0.38426800    -0.60600
H331        H  0.41922322  0.98257923  0.39855047     0.43400
H332        H  0.31912418  0.09958867  0.44401944     0.43300
C333        C  0.02100035  0.51803325  0.46136470    -0.08900
C334        C  0.99112267  0.52556453  0.45027758    -0.33100
C335        C  0.46606217  0.51173755  0.96843197     0.36100
C336        C  0.47052543  0.48974023  0.49820356    -0.06100
C337        C  0.50038392  0.48199419  0.50912150    -0.33000
C338        C  0.02542516  0.49589679  0.49102262     0.36000
H339        H  0.98711773  0.54263628  0.42747520     0.16400
O340        O  0.43748325  0.51828560  0.95580206    -0.60500
H341        H  0.50441688  0.46476417  0.53181519     0.16400
O342        O  0.05402930  0.48824085  0.50294245    -0.60600
H343        H  0.55702439  0.50479487  0.52324569     0.43400
H344        H  0.43226526  0.54362019  0.96399096     0.43300
C345        C  0.50494956  0.60733021  0.35268187    -0.05700
C346        C  0.48296979  0.63093179  0.36653703    -0.33100
C347        C  0.45234268  0.62551392  0.35918849     0.36100
C348        C  0.44290223  0.59573450  0.33752800    -0.06100
C349        C  0.46491187  0.57232479  0.32327598    -0.33000
C350        C  0.49571398  0.57798643  0.33054331     0.36000
H351        H  0.48942296  0.65337477  0.38389782     0.16400
O352        O  0.43181149  0.64848865  0.37491124    -0.60500
H353        H  0.45825566  0.54929381  0.30671822     0.16400
O354        O  0.01633683  0.55335299  0.31743557    -0.60600
H355        H  0.02131051  0.56297265  0.29398214     0.43400
H356        H  0.43108327  0.67118455  0.36019422     0.43300
C357        C  0.19299492  0.59453491  0.37554514    -0.05700
C358        C  0.21471283  0.56901643  0.38741099    -0.33100
C359        C  0.24545952  0.57412664  0.37972621     0.36100
C360        C  0.25486425  0.60504920  0.35963019    -0.06100
C361        C  0.23322998  0.63065795  0.34821205    -0.33000
C362        C  0.20272011  0.62582841  0.35599677     0.36000
H363        H  0.20785194  0.54473494  0.40222822     0.16400
O364        O  0.26575823  0.54750066  0.39013070    -0.60500
H365        H  0.23987257  0.65437788  0.33248846     0.16400
O366        O  0.18251561  0.65112503  0.34274421    -0.60600
H367        H  0.18224531  0.67183285  0.35975145     0.43400
H368        H  0.27165413  0.55452525  0.41412551     0.43300
C369        C  0.12176984  0.56969463  0.01888872    -0.05700
C370        C  0.09927670  0.56117287  0.04336017    -0.33100
C371        C  0.10545154  0.53689589  0.07100851     0.36100
C372        C  0.13451523  0.52148236  0.07480037    -0.06100
C373        C  0.15789688  0.53356577  0.05311067    -0.33000
C374        C  0.15180934  0.55798197  0.02555046     0.36000
H375        H  0.07617359  0.57022801  0.03921026     0.16400
O376        O  0.08252744  0.52679948  0.09310265    -0.60500
H377        H  0.18049771  0.52241836  0.05631823     0.16400
O378        O  0.17490382  0.56757399  0.00353608    -0.60600
H379        H  0.18052393  0.59344956  0.00998118     0.43400
H380        H  0.07442006  0.50294554  0.08387670     0.43300
C381        C  0.11007342  0.49216087  0.32338523    -0.05700
C382        C  0.08627776  0.47691422  0.30377640    -0.33100
C383        C  0.09222721  0.45332850  0.27547262     0.36100
C384        C  0.12238168  0.44395602  0.26685354    -0.06100
C385        C  0.14591919  0.45697972  0.28844661    -0.33000
C386        C  0.13996882  0.48113776  0.31621406     0.36000
H387        H  0.06316712  0.48503936  0.30908751     0.16400
O388        O  0.06847238  0.44070932  0.25554170    -0.60500
H389        H  0.16926612  0.45097540  0.28211474     0.16400
O390        O  0.16375788  0.49581625  0.33480583    -0.60600
H391        H  0.16697261  0.47827332  0.35437856     0.43400
H392        H  0.06229189  0.46228856  0.24107460     0.43300
C393        C  0.25425450  0.90133787  0.36488299    -0.05700
C394        C  0.24565183  0.93408995  0.38220136    -0.33100
C395        C  0.21503925  0.94154948  0.38884560     0.36100
C396        C  0.19254934  0.91569981  0.37864688    -0.06100
C397        C  0.20157201  0.88219625  0.36286057    -0.33000
C398        C  0.23189018  0.87500745  0.35591378     0.36000
H399        H  0.26253851  0.95482180  0.38914816     0.16400
O400        O  0.20747663  0.97419038  0.40501361    -0.60500
H401        H  0.18498599  0.86151304  0.35492643     0.16400
O402        O  0.23925012  0.84247831  0.33938975    -0.60600
H403        H  0.24418513  0.82465179  0.35826280     0.43400
H404        H  0.20652940  0.99308449  0.38621094     0.43300
C405        C  0.50488121  0.90259366  0.34857467    -0.05700
C406        C  0.48429346  0.87363051  0.35468132    -0.33100
C407        C  0.45346625  0.87824513  0.34800966     0.36100
C408        C  0.44248064  0.91266682  0.33514566    -0.06100
C409        C  0.46338614  0.94119215  0.32765637    -0.33000
C410        C  0.49438445  0.93630038  0.33407494     0.36000
H411        H  0.49203465  0.84747257  0.36558650     0.16400
O412        O  0.43433564  0.84888702  0.35470190    -0.60500
H413        H  0.45566283  0.96780185  0.31778401     0.16400
O414        O  0.01382737  0.96565676  0.32866148    -0.60600
H415        H  0.51934944  0.96422767  0.30377425     0.43400
H416        H  0.43007685  0.85027249  0.37993145     0.43300
C417        C  0.09984100  0.79494377  0.40341323    -0.05700
C418        C  0.09772375  0.77564465  0.43514749    -0.33100
C419        C  0.09789096  0.73651928  0.43623604     0.36100
C420        C  0.10035657  0.71582051  0.40518644    -0.06100
C421        C  0.10432598  0.73524578  0.37383041    -0.33000
C422        C  0.10423937  0.77418324  0.37274184     0.36000
H423        H  0.09475265  0.79081719  0.45917128     0.16400
O424        O  0.09479988  0.71897974  0.46770670    -0.60500
H425        H  0.10675510  0.72020646  0.34964719     0.16400
O426        O  0.10742376  0.79148716  0.34118002    -0.60600
H427        H  0.12955825  0.79488224  0.33819269     0.43400
H428        H  0.07270521  0.71834416  0.47216909     0.43300
C429        C  0.11137560  0.01791049  0.32195964    -0.05700
C430        C  0.08839662  0.03934114  0.30672895    -0.33100
C431        C  0.09508707  0.06377204  0.27916267     0.36100
C432        C  0.12522920  0.06800860  0.26764039    -0.06100
C433        C  0.14839971  0.04926468  0.28543858    -0.33000
C434        C  0.14158821  0.02364941  0.31167989     0.36000
H435        H  0.06508681  0.03534374  0.31461041     0.16400
O436        O  0.07198936  0.08237510  0.26279718    -0.60500
H437        H  0.17163399  0.05167657  0.27677312     0.16400
O438        O  0.16458927  0.00346497  0.32651542    -0.60600
H439        H  0.16740318  0.98168964  0.31106758     0.43400
H440        H  0.06220266  0.06371835  0.24737072     0.43300
C441        C  0.11907106  0.94309006  0.01741145    -0.05700
C442        C  0.14890279  0.95607999  0.02309401    -0.33100
C443        C  0.15597950  0.97912652  0.05137481     0.36100
C444        C  0.13333902  0.98889748  0.07501495    -0.06100
C445        C  0.10430643  0.97321415  0.07140885    -0.33000
C446        C  0.09709286  0.95022609  0.04304336     0.36000
H447        H  0.16633393  0.95085905  0.00403859     0.16400
O448        O  0.18460744  0.99379105  0.05449610    -0.60500
H449        H  0.08660981  0.98080561  0.08942399     0.16400
O450        O  0.06771880  0.93846636  0.03880267    -0.60600
H451        H  0.06716292  0.91288606  0.04856791     0.43400
H452        H  0.18433207  0.01709991  0.04061943     0.43300
C453        C  0.47157271  0.01738655  0.50275909    -0.05700
C454        C  0.50159578  0.03023726  0.50760195    -0.33100
C455        C  0.52545354  0.01697709  0.48735184     0.36100
C456        C  0.01976323  0.99024879  0.46149195    -0.06100
C457        C  0.98972958  0.97741579  0.45659037    -0.33000
C458        C  0.46590610  0.99043521  0.97705949     0.36000
H459        H  0.50672954  0.05114415  0.52705519     0.16400
O460        O  0.55418736  0.03028785  0.49326085    -0.60500
H461        H  0.98459413  0.95666684  0.93698497     0.16400
O462        O  0.43711439  0.97751392  0.97081057    -0.60600
H463        H  0.93553438  0.95387626  0.98406075     0.43400
H464        H  0.56206216  0.01547421  0.51307942     0.43300
O465        O  0.05770985  0.91532704  0.84622593    -0.85600
O466        O  0.11161847  0.95466604  0.83884785    -0.82600
C467        C  0.10425115  0.98758465  0.84652136     0.97900
O468        O  0.09383510  0.99459784  0.87609148    -0.82700
O469        O  0.07199071  0.98310373  0.94321833    -0.85300
C470        C  0.04468217  0.97120439  0.94291348     1.02400
O471        O  0.03831846  0.94052444  0.92919679    -0.78100
O472        O  0.04138165  0.88025939  0.88887856    -0.78300
C473        C  0.03621080  0.89893162  0.86143615     1.02300
O474        O  0.09157300  0.85224843  0.87319381    -0.85600
O475        O  0.14169423  0.89669677  0.87437782    -0.82700
C476        C  0.15964553  0.92255714  0.88292123     0.97900
O477        O  0.14947536  0.95388360  0.89322834    -0.82700
O478        O  0.12680083  0.94098791  0.95714387    -0.85300
C479        C  0.11017756  0.93104611  0.98176122     1.02400
O480        O  0.08471945  0.91600806  0.97516167    -0.78100
O481        O  0.09279790  0.85457435  0.92985217    -0.78300
C482        C  0.09529313  0.83602248  0.90219327     1.02300
Cr483      Cr  0.09986323  0.90591453  0.86081000     1.93700
Cr484      Cr  0.10915731  0.96543234  0.91633013     1.93200
Cr485      Cr  0.06646433  0.89913609  0.92907668     1.39100
O486        O  0.09194329  0.92374992  0.90228109    -1.23300
O487        O  0.04251487  0.63008200  0.89184287    -0.85600
O488        O  0.03986396  0.56962072  0.93202081    -0.82600
C489        C  0.04630404  0.53859995  0.94492446     0.97900
O490        O  0.07371861  0.52738761  0.94585133    -0.82700
O491        O  0.09535732  0.51523468  0.87878829    -0.85300
C492        C  0.10441181  0.52245905  0.84856322     1.02400
O493        O  0.11111238  0.55560447  0.84027701    -0.78100
O494        O  0.05780816  0.59513478  0.84904660    -0.78300
C495        C  0.03663632  0.61131143  0.86470148     1.02300
O496        O  0.09444896  0.65586399  0.93181309    -0.85600
O497        O  0.08663052  0.59474977  0.97718669    -0.82700
C498        C  0.11247676  0.58100345  0.98333429     0.97900
O499        O  0.12872778  0.57110070  0.95850401    -0.82700
O500        O  0.15053645  0.55723450  0.89422452    -0.85300
C501        C  0.16037201  0.58826352  0.88243234     1.02400
O502        O  0.14229534  0.61400964  0.87485445    -0.78100
O503        O  0.09269041  0.65837086  0.87513982    -0.78300
C504        C  0.09641882  0.67459495  0.90417678     1.02300
Cr505      Cr  0.06800675  0.61122189  0.93145483     1.93700
Cr506      Cr  0.11069384  0.54550916  0.91840880     1.93200
Cr507      Cr  0.10025037  0.60458337  0.86252837     1.39100
O508        O  0.09304854  0.58674757  0.90423710    -1.23300
O509        O  0.29077919  0.87836583  0.82533129    -0.85600
O510        O  0.28767956  0.93943406  0.78535460    -0.82600
C511        C  0.29438242  0.97000470  0.77155842     0.97900
O512        O  0.32199147  0.98071355  0.77003180    -0.82700
O513        O  0.34501660  0.99268204  0.83646755    -0.85300
C514        C  0.35475130  0.98554004  0.86646168     1.02400
O515        O  0.36142726  0.95253060  0.87484743    -0.78100
O516        O  0.30730753  0.91350715  0.86768908    -0.78300
C517        C  0.28566162  0.89711100  0.85253319     1.02300
O518        O  0.34128405  0.85304324  0.78415589    -0.85600
O519        O  0.33271396  0.91410673  0.73918916    -0.82700
C520        C  0.35852492  0.92761274  0.73219812     0.97900
O521        O  0.37609614  0.93644285  0.75642870    -0.82700
O522        O  0.39953008  0.95054202  0.82011913    -0.85300
C523        C  0.40947781  0.91934126  0.83114423     1.02400
O524        O  0.39136234  0.89400080  0.84031629    -0.78100
O525        O  0.34110508  0.85001851  0.84091554    -0.78300
C526        C  0.34424764  0.83426640  0.81166536     1.02300
Cr527      Cr  0.31526196  0.89746074  0.78520339     1.93700
Cr528      Cr  0.35930849  0.96241605  0.79682754     1.93200
Cr529      Cr  0.34949354  0.90369986  0.85332337     1.39100
O530        O  0.34146210  0.92150436  0.81169825    -1.23300
O531        O  0.30769164  0.59291339  0.86277751    -0.85600
O532        O  0.36113536  0.55452922  0.87157756    -0.82600
C533        C  0.35441957  0.52165797  0.86258564     0.97900
O534        O  0.34618338  0.51481549  0.83197947    -0.82700
O535        O  0.32426090  0.52704075  0.76531642    -0.85300
C536        C  0.29666722  0.53747466  0.76696154     1.02400
O537        O  0.29003585  0.56799257  0.78045364    -0.78100
O538        O  0.29185845  0.62832877  0.82035302    -0.78300
C539        C  0.28631890  0.60914559  0.84733222     1.02300
O540        O  0.34179650  0.65726268  0.83745453    -0.85600
O541        O  0.39194436  0.61407875  0.83845342    -0.82700
C542        C  0.41033192  0.58894414  0.83042159     0.97900
O543        O  0.40093411  0.55808337  0.81773780    -0.82700
O544        O  0.37869364  0.57194884  0.75282251    -0.85300
C545        C  0.36145472  0.58064848  0.72822081     1.02400
O546        O  0.33564211  0.59410387  0.73489372    -0.78100
O547        O  0.34314423  0.65515118  0.78065262    -0.78300
C548        C  0.34507955  0.67361910  0.80841057     1.02300
Cr549      Cr  0.34995816  0.60354192  0.84979715     1.93700
Cr550      Cr  0.36122960  0.54570084  0.79300723     1.93200
Cr551      Cr  0.31736094  0.61018943  0.78075628     1.39100
O552        O  0.34308067  0.58624615  0.80771575    -1.23300
O553        O  0.43442568  0.41585493  0.61277145    -0.85600
O554        O  0.38133939  0.45602502  0.62113059    -0.82600
C555        C  0.38834984  0.48885149  0.61219267     0.97900
O556        O  0.39761238  0.49520863  0.58191642    -0.82700
O557        O  0.41803531  0.48151331  0.51476148    -0.85300
C558        C  0.44525157  0.46971790  0.51520561     1.02400
O559        O  0.45151209  0.43877590  0.52842513    -0.78100
O560        O  0.44902829  0.37977648  0.57045374    -0.78300
C561        C  0.45536165  0.39919942  0.59710900     1.02300
O562        O  0.39905864  0.35224450  0.58885104    -0.85600
O563        O  0.34944261  0.39729311  0.58841258    -0.82700
C564        C  0.33163263  0.42313698  0.57996297     0.97900
O565        O  0.34175998  0.45385393  0.56788538    -0.82700
O566        O  0.36254364  0.43856040  0.00376657    -0.85300
C567        C  0.37865188  0.42870678  0.97884331     1.02400
O568        O  0.40395687  0.41340007  0.98491207    -0.78100
O569        O  0.39648669  0.35266255  0.53220252    -0.78300
C570        C  0.39513499  0.33481784  0.56049355     1.02300
Cr571      Cr  0.39176142  0.40645961  0.60002508     1.93700
Cr572      Cr  0.38136602  0.46447695  0.54310366     1.93200
Cr573      Cr  0.42305793  0.39751947  0.53072840     1.39100
O574        O  0.39863790  0.42311783  0.55778382    -1.23300
O575        O  0.45027465  0.12778543  0.57556673    -0.85600
O576        O  0.45321187  0.06700063  0.53551377    -0.82600
C577        C  0.44670790  0.03654451  0.52137334     0.97900
O578        O  0.41931858  0.02497747  0.52073468    -0.82700
O579        O  0.39723944  0.01345616  0.58776038    -0.85300
C580        C  0.38704585  0.02062590  0.61741071     1.02400
O581        O  0.37992357  0.05360715  0.62515669    -0.78100
O582        O  0.43384783  0.09278921  0.61810362    -0.78300
C583        C  0.45538452  0.10929613  0.60307634     1.02300
O584        O  0.39942844  0.15376087  0.53424473    -0.85600
O585        O  0.40752571  0.09206859  0.98939614    -0.82700
C586        C  0.38208346  0.07733116  0.98238097     0.97900
O587        O  0.36485968  0.06767678  0.00655456    -0.82700
O588        O  0.34189839  0.05444048  0.57061799    -0.85300
C589        C  0.33180079  0.08560710  0.58137161     1.02400
O590        O  0.34978572  0.11152128  0.58975398    -0.78100
O591        O  0.39998309  0.15624697  0.59091919    -0.78300
C592        C  0.39689567  0.17251951  0.56177654     1.02300
Cr593      Cr  0.42542356  0.10885852  0.53536698     1.93700
Cr594      Cr  0.38218664  0.04289863  0.54753749     1.93200
Cr595      Cr  0.39167326  0.10236315  0.60330847     1.39100
O596        O  0.39958777  0.08447581  0.56185773    -1.23300
O597        O  0.19914926  0.37999318  0.63965443    -0.85600
O598        O  0.20233095  0.43883930  0.68116437    -0.82600
C599        C  0.19632054  0.46986659  0.69406165     0.97900
O600        O  0.16900504  0.48144684  0.69527128    -0.82700
O601        O  0.14768512  0.49576815  0.62925213    -0.85300
C602        C  0.13923723  0.48997896  0.59860807     1.02400
O603        O  0.13219543  0.45745432  0.58884455    -0.78100
O604        O  0.18498460  0.41716525  0.59772533    -0.78300
C605        C  0.20567985  0.39971510  0.61330205     1.02300
O606        O  0.14660009  0.35366695  0.67752589    -0.85600
O607        O  0.15530238  0.41425110  0.72541375    -0.82700
C608        C  0.13002244  0.42944031  0.73169931     0.97900
O609        O  0.11332270  0.43836858  0.70676527    -0.82700
O610        O  0.09177211  0.45366088  0.64230954    -0.85300
C611        C  0.08206761  0.42320048  0.62905267     1.02400
O612        O  0.10015675  0.39798276  0.62038195    -0.78100
O613        O  0.14937587  0.35320404  0.62081084    -0.78300
C614        C  0.14511158  0.33590030  0.64920190     1.02300
Cr615      Cr  0.17362748  0.39795332  0.67929157     1.93700
Cr616      Cr  0.13169686  0.46455544  0.66733975     1.93200
Cr617      Cr  0.14235960  0.40756840  0.60971663     1.39100
O618        O  0.14906305  0.42365185  0.65225493    -1.23300
O619        O  0.18424988  0.09335190  0.59703777    -0.85600
O620        O  0.13113914  0.05246809  0.59016027    -0.82600
C621        C  0.13800869  0.01982626  0.59964156     0.97900
O622        O  0.14675527  0.01364989  0.63023928    -0.82700
O623        O  0.16957724  0.02874496  0.69631455    -0.85300
C624        C  0.19702734  0.04009176  0.69495134     1.02400
O625        O  0.20342097  0.07051994  0.68065689    -0.78100
O626        O  0.19976689  0.13006292  0.63866824    -0.78300
C627        C  0.20552579  0.11054120  0.61212677     1.02300
O628        O  0.14910304  0.15694540  0.62149704    -0.85600
O629        O  0.09949555  0.11131675  0.62283307    -0.82700
C630        C  0.08171573  0.08602063  0.63309836     0.97900
O631        O  0.09203003  0.05539590  0.64489130    -0.82700
O632        O  0.11479775  0.07246772  0.70814130    -0.85300
C633        C  0.13206224  0.08201271  0.73240078     1.02400
O634        O  0.15761140  0.09623473  0.72538257    -0.78100
O635        O  0.14850248  0.15597986  0.67825246    -0.78300
C636        C  0.14590543  0.17393928  0.65018863     1.02300
Cr637      Cr  0.14173453  0.10242477  0.61060393     1.93700
Cr638      Cr  0.13216666  0.04532594  0.66877054     1.93200
Cr639      Cr  0.17514240  0.11183746  0.67901185     1.39100
O640        O  0.14963560  0.08614184  0.65283278    -1.23300
C641        C  0.14136525  0.29452662  0.64922170    -0.05700
C642        C  0.14118509  0.27492739  0.68087028    -0.33100
C643        C  0.14133035  0.23583927  0.68173180     0.36100
C644        C  0.14179335  0.21520880  0.65050709    -0.06100
C645        C  0.14035576  0.23478822  0.61888394    -0.33000
C646        C  0.14025573  0.27385503  0.61800076     0.36000
H647        H  0.14188995  0.28991207  0.70525253     0.16400
O648        O  0.14235905  0.21830785  0.71337440    -0.60500
H649        H  0.14023651  0.21983377  0.59447328     0.16400
O650        O  0.13943260  0.29139445  0.58632534    -0.60600
H651        H  0.16062298  0.29120165  0.57791472     0.43400
H652        H  0.12088852  0.21426895  0.71986603     0.43300
C653        C  0.48670400  0.10562837  0.61605931    -0.05700
C654        C  0.99601215  0.07221542  0.63189036    -0.33100
C655        C  0.02674694  0.06553301  0.63871668     0.36100
C656        C  0.04867947  0.09255097  0.62960992    -0.06100
C657        C  0.03888740  0.12677957  0.61573419    -0.33000
C658        C  0.00837027  0.13337254  0.60897757     0.36000
H659        H  0.97961262  0.05045914  0.63742453     0.16400
O660        O  0.03503737  0.03196200  0.65282352    -0.60500
H661        H  0.05501411  0.14848013  0.60913764     0.16400
O662        O  0.50010551  0.16673261  0.59439957    -0.60600
H663        H  0.49377679  0.18248667  0.61417669     0.43400
H664        H  0.03556144  0.03615965  0.67826861     0.43300
C665        C  0.29894718  0.09215531  0.58639404    -0.05700
C666        C  0.29014720  0.12422909  0.60465106    -0.33100
C667        C  0.25984083  0.13141165  0.61167880     0.36100
C668        C  0.23720696  0.10641635  0.60041738    -0.06100
C669        C  0.24569196  0.07494003  0.58104779    -0.33000
C670        C  0.27630251  0.06751095  0.57426000     0.36000
H671        H  0.30689949  0.14381843  0.61434495     0.16400
O672        O  0.25277064  0.16257735  0.63048514    -0.60500
H673        H  0.22867927  0.05518557  0.57230880     0.16400
O674        O  0.28370825  0.03629877  0.55570952    -0.60600
H675        H  0.28194733  0.01530565  0.57237390     0.43400
H676        H  0.25088066  0.18287208  0.61311444     0.43300
C677        C  0.29898364  0.41718266  0.58642396    -0.05700
C678        C  0.29036165  0.38712111  0.60773143    -0.33100
C679        C  0.26013056  0.38029695  0.61554701     0.36100
C680        C  0.23746264  0.40367242  0.60202260    -0.06100
C681        C  0.24585796  0.43334872  0.58002119    -0.33000
C682        C  0.27637342  0.44039017  0.57240316     0.36000
H683        H  0.30720268  0.36886473  0.61906693     0.16400
O684        O  0.25320658  0.35111089  0.63719447    -0.60500
H685        H  0.22883186  0.45190767  0.56951313     0.16400
O686        O  0.28370039  0.46963439  0.55099880    -0.60600
H687        H  0.28406669  0.49188176  0.56623226     0.43400
H688        H  0.24909395  0.32971313  0.62158136     0.43300
C689        C  0.48733331  0.40349461  0.60835051    -0.05700
C690        C  0.00965580  0.38399559  0.59027284    -0.33100
C691        C  0.04028426  0.39020638  0.59688149     0.36100
C692        C  0.04948103  0.41665484  0.62206227    -0.06100
C693        C  0.02727157  0.43584686  0.64067846    -0.33000
C694        C  0.99639210  0.42942285  0.63407925     0.36000
H695        H  0.50347765  0.36426746  0.57015057     0.16400
O696        O  0.06103347  0.37139358  0.57722036    -0.60500
H697        H  0.03382368  0.45584556  0.66041020     0.16400
O698        O  0.47538964  0.44889047  0.65274936    -0.60600
H699        H  0.97327453  0.47308989  0.64052122     0.43400
H700        H  0.06288971  0.34651416  0.58827986     0.43300
C701        C  0.39186791  0.29328069  0.56072068    -0.05700
C702        C  0.39111345  0.27323289  0.52932229    -0.33100
C703        C  0.39144860  0.23403017  0.52904492     0.36100
C704        C  0.39282538  0.21383538  0.56057403    -0.06100
C705        C  0.39206095  0.23388528  0.59187071    -0.33000
C706        C  0.39167199  0.27291273  0.59219565     0.36000
H707        H  0.39106673  0.28795406  0.00474234     0.16400
O708        O  0.39152244  0.21596856  0.99770229    -0.60500
H709        H  0.39262711  0.21932889  0.61653212     0.16400
O710        O  0.39148358  0.29073168  0.62367387    -0.60600
H711        H  0.41297035  0.29160684  0.63127000     0.43400
H712        H  0.36993942  0.21037259  0.99261987     0.43300
C713        C  0.35895540  0.49102703  0.88746339    -0.05700
C714        C  0.33510866  0.47898372  0.90851676    -0.33100
C715        C  0.34054997  0.45468617  0.93638592     0.36100
C716        C  0.37032138  0.44225194  0.94361027    -0.06100
C717        C  0.39358138  0.45189102  0.92043166    -0.33000
C718        C  0.38809956  0.47638216  0.89275560     0.36000
H719        H  0.31257005  0.49004187  0.90454176     0.16400
O720        O  0.31703364  0.44575867  0.95804441    -0.60500
H721        H  0.41665861  0.44330847  0.92558300     0.16400
O722        O  0.41190275  0.48828384  0.87277500    -0.60600
H723        H  0.41127519  0.47233919  0.85178795     0.43400
H724        H  0.30988087  0.42090683  0.95020699     0.43300
C725        C  0.38212247  0.51973282  0.63642291    -0.05700
C726        C  0.40567124  0.53777515  0.65435241    -0.33100
C727        C  0.39929312  0.56123871  0.68263608     0.36100
C728        C  0.36898906  0.56744240  0.69275031    -0.06100
C729        C  0.34555638  0.55223396  0.67235445    -0.33000
C730        C  0.35193488  0.52825606  0.64473362     0.36000
H731        H  0.42900078  0.53176738  0.64795647     0.16400
O732        O  0.42279350  0.57686057  0.70105830    -0.60500
H733        H  0.32213767  0.55612160  0.67972694     0.16400
O734        O  0.32842115  0.51114217  0.62754345    -0.60600
H735        H  0.32344372  0.52799929  0.60792467     0.43400
H736        H  0.43106997  0.55640775  0.71556321     0.43300
C737        C  0.27141774  0.51708054  0.75011850    -0.05700
C738        C  0.27642917  0.49736682  0.71939214    -0.33100
C739        C  0.25199637  0.48393353  0.69969212     0.36100
C740        C  0.22182000  0.48980590  0.71080533    -0.06100
C741        C  0.21684450  0.50940361  0.74153757    -0.33000
C742        C  0.24123540  0.52289420  0.76119369     0.36000
H743        H  0.29926806  0.49346361  0.70995560     0.16400
O744        O  0.25791455  0.46476920  0.66969401    -0.60500
H745        H  0.19402273  0.51313349  0.75109115     0.16400
O746        O  0.23535065  0.54094061  0.79181719    -0.60600
H747        H  0.22809733  0.56605026  0.78502892     0.43400
H748        H  0.25733986  0.48373763  0.65094441     0.43300
C749        C  0.26954298  0.99047287  0.75400416    -0.05700
C750        C  0.27601907  0.01360654  0.72565411    -0.33100
C751        C  0.25268091  0.02826272  0.70513256     0.36100
C752        C  0.22198132  0.02035808  0.71305069    -0.06100
C753        C  0.21551271  0.99733319  0.74147769    -0.33000
C754        C  0.23883758  0.98274436  0.76203669     0.36000
H755        H  0.29929168  0.01938767  0.71858013     0.16400
O756        O  0.26025281  0.05036327  0.67734660    -0.60500
H757        H  0.19224492  0.99139883  0.74844430     0.16400
O758        O  0.23125524  0.96063382  0.78981361    -0.60600
H759        H  0.23039449  0.97776171  0.80996815     0.43400
H760        H  0.26174397  0.03311814  0.65733843     0.43300
C761        C  0.34845508  0.79341728  0.80969108    -0.05700
C762        C  0.34055735  0.77451047  0.77901652    -0.33100
C763        C  0.34034731  0.73555487  0.77774083     0.36100
C764        C  0.34857915  0.71466581  0.80737561    -0.06100
C765        C  0.35798454  0.73362667  0.83746094    -0.33000
C766        C  0.35809599  0.77257261  0.83874909     0.36000
H767        H  0.33310019  0.78987403  0.75631591     0.16400
O768        O  0.33072037  0.71833780  0.74785679    -0.60500
H769        H  0.36473090  0.71819443  0.86041519     0.16400
O770        O  0.36696782  0.78986205  0.86888031    -0.60600
H771        H  0.38910552  0.79372143  0.86651238     0.43400
H772        H  0.30838915  0.71648700  0.74997358     0.43300
C773        C  0.36549265  0.94143139  0.69697387    -0.05700
C774        C  0.34251187  0.96058751  0.67927234    -0.33100
C775        C  0.34950774  0.98552408  0.65260320     0.36100
C776        C  0.37972015  0.99045880  0.64202410    -0.06100
C777        C  0.40249040  0.96868636  0.65725651    -0.33000
C778        C  0.39562195  0.94479622  0.68517527     0.36000
H779        H  0.31933524  0.95903364  0.68829488     0.16400
O780        O  0.32683475  0.00679278  0.63849061    -0.60500
H781        H  0.42580240  0.97210175  0.64916755     0.16400
O782        O  0.41854728  0.92596040  0.70163028    -0.60600
H783        H  0.42854226  0.94458946  0.71690260     0.43400
H784        H  0.31926405  0.99233561  0.61830813     0.43300
C785        C  0.36155071  0.01577147  0.89108817    -0.05700
C786        C  0.33819883  0.03481411  0.90782624    -0.33100
C787        C  0.34472704  0.05852263  0.93587955     0.36100
C788        C  0.37498462  0.06390544  0.94695636    -0.06100
C789        C  0.39838787  0.04744835  0.92790330    -0.33000
C790        C  0.39181573  0.02294986  0.90065245     0.36000
H791        H  0.31482975  0.02944332  0.90064094     0.16400
O792        O  0.32128569  0.07416890  0.95383201    -0.60500
H793        H  0.42174220  0.05070212  0.93619004     0.16400
O794        O  0.41510274  0.00503264  0.88426791    -0.60600
H795        H  0.41922361  0.98257945  0.89855027     0.43400
H796        H  0.31912456  0.09958863  0.94401975     0.43300
C797        C  0.02100034  0.51803352  0.96136471    -0.08900
C798        C  0.99112263  0.52556518  0.95027790    -0.33100
C799        C  0.46606215  0.51173701  0.46843170     0.36100
C800        C  0.47052552  0.48974028  0.99820353    -0.06100
C801        C  0.50038401  0.48199393  0.00912117    -0.33000
C802        C  0.02542523  0.49589659  0.99102234     0.36000
H803        H  0.98711764  0.54263729  0.92747577     0.16400
O804        O  0.43748325  0.51828473  0.45580156    -0.60500
H805        H  0.50441704  0.46476358  0.03181463     0.16400
O806        O  0.05402940  0.48824029  0.00294192    -0.60600
H807        H  0.55702474  0.50479421  0.02324515     0.43400
H808        H  0.43226503  0.54361919  0.46399044     0.43300
C809        C  0.50494959  0.60733026  0.85268188    -0.05700
C810        C  0.48296987  0.63093211  0.86653664    -0.33100
C811        C  0.45234279  0.62551434  0.85918797     0.36100
C812        C  0.44290228  0.59573467  0.83752778    -0.06100
C813        C  0.46491191  0.57232463  0.82327616    -0.33000
C814        C  0.49571400  0.57798622  0.83054359     0.36000
H815        H  0.48942306  0.65337534  0.88389715     0.16400
O816        O  0.43181167  0.64848946  0.87491034    -0.60500
H817        H  0.45825574  0.54929339  0.80671868     0.16400
O818        O  0.01633684  0.55335282  0.81743604    -0.60600
H819        H  0.02131065  0.56297231  0.79398256     0.43400
H820        H  0.43108349  0.67118499  0.86019296     0.43300
C821        C  0.19299498  0.59453511  0.87554534    -0.05700
C822        C  0.21471281  0.56901627  0.88741065    -0.33100
C823        C  0.24545948  0.57412644  0.87972579     0.36100
C824        C  0.25486430  0.60504923  0.85963018    -0.06100
C825        C  0.23323012  0.63065831  0.84821254    -0.33000
C826        C  0.20272027  0.62582887  0.85599740     0.36000
H827        H  0.20785185  0.54473450  0.90222743     0.16400
O828        O  0.26575808  0.54750004  0.89012962    -0.60500
H829        H  0.23987278  0.65437846  0.83248928     0.16400
O830        O  0.18251586  0.65112592  0.84274540    -0.60600
H831        H  0.18224561  0.67183315  0.85975304     0.43400
H832        H  0.27165402  0.55452396  0.91412446     0.43300
C833        C  0.12176981  0.56969452  0.51888864    -0.05700
C834        C  0.09927665  0.56117277  0.54336009    -0.33100
C835        C  0.10545151  0.53689586  0.57100849     0.36100
C836        C  0.13451516  0.52148225  0.57480032    -0.06100
C837        C  0.15789682  0.53356557  0.55311058    -0.33000
C838        C  0.15180930  0.55798179  0.52555037     0.36000
H839        H  0.07617354  0.57022793  0.53921021     0.16400
O840        O  0.08252747  0.52679961  0.59310278    -0.60500
H841        H  0.18049764  0.52241812  0.55631813     0.16400
O842        O  0.17490379  0.56757378  0.50353599    -0.60600
H843        H  0.18052477  0.59344874  0.50998210     0.43400
H844        H  0.07442020  0.50294563  0.58387714     0.43300
C845        C  0.11007350  0.49216110  0.82338518    -0.05700
C846        C  0.08627783  0.47691420  0.80377650    -0.33100
C847        C  0.09222729  0.45332845  0.77547273     0.36100
C848        C  0.12238178  0.44395609  0.76685360    -0.06100
C849        C  0.14591929  0.45698003  0.78844656    -0.33000
C850        C  0.13996892  0.48113814  0.81621394     0.36000
H851        H  0.06316717  0.48503917  0.80908769     0.16400
O852        O  0.06847246  0.44070912  0.75554189    -0.60500
H853        H  0.16926623  0.45097589  0.78211463     0.16400
O854        O  0.16375802  0.49581687  0.83480549    -0.60600
H855        H  0.16697303  0.47827399  0.85437816     0.43400
H856        H  0.06229193  0.46228831  0.74107459     0.43300
C857        C  0.25425455  0.90133787  0.86488306    -0.05700
C858        C  0.24565184  0.93408998  0.88220134    -0.33100
C859        C  0.21503925  0.94154943  0.88884559     0.36100
C860        C  0.19254935  0.91569980  0.87864686    -0.06100
C861        C  0.20157205  0.88219622  0.86286060    -0.33000
C862        C  0.23189026  0.87500742  0.85591391     0.36000
H863        H  0.26253850  0.95482185  0.88914813     0.16400
O864        O  0.20747662  0.97419019  0.90501387    -0.60500
H865        H  0.18498604  0.86151304  0.85492639     0.16400
O866        O  0.23925027  0.84247828  0.83938996    -0.60600
H867        H  0.24418539  0.82465172  0.85826320     0.43400
H868        H  0.20652936  0.99308421  0.88621162     0.43300
C869        C  0.50488127  0.90259351  0.84857433    -0.05700
C870        C  0.48429353  0.87363033  0.85468101    -0.33100
C871        C  0.45346631  0.87824492  0.84800933     0.36100
C872        C  0.44248069  0.91266661  0.83514534    -0.06100
C873        C  0.46338618  0.94119189  0.82765587    -0.33000
C874        C  0.49438450  0.93630018  0.83407445     0.36000
H875        H  0.49203471  0.84747241  0.86558625     0.16400
O876        O  0.43433569  0.84888682  0.85470157    -0.60500
H877        H  0.45566287  0.96780151  0.81778336     0.16400
O878        O  0.01382734  0.96565671  0.82866118    -0.60600
H879        H  0.51934948  0.96422704  0.80377317     0.43400
H880        H  0.43007689  0.85027232  0.87993112     0.43300
C881        C  0.09984103  0.79494385  0.90341328    -0.05700
C882        C  0.09772375  0.77564474  0.93514754    -0.33100
C883        C  0.09789102  0.73651936  0.93623611     0.36100
C884        C  0.10035672  0.71582058  0.90518652    -0.06100
C885        C  0.10432622  0.73524586  0.87383049    -0.33000
C886        C  0.10423955  0.77418333  0.87274194     0.36000
H887        H  0.09475266  0.79081732  0.95917130     0.16400
O888        O  0.09480008  0.71897982  0.96770680    -0.60500
H889        H  0.10675540  0.72020655  0.84964728     0.16400
O890        O  0.10742396  0.79148734  0.84118015    -0.60600
H891        H  0.12955827  0.79488228  0.83819281     0.43400
H892        H  0.07270539  0.71834426  0.97216941     0.43300
C893        C  0.11137567  0.01791055  0.82195945    -0.05700
C894        C  0.08839670  0.03934124  0.80672885    -0.33100
C895        C  0.09508713  0.06377213  0.77916256     0.36100
C896        C  0.12522925  0.06800876  0.76764029    -0.06100
C897        C  0.14839978  0.04926489  0.78543847    -0.33000
C898        C  0.14158828  0.02364949  0.81167967     0.36000
H899        H  0.06508690  0.03534385  0.81461036     0.16400
O900        O  0.07198944  0.08237520  0.76279708    -0.60500
H901        H  0.17163407  0.05167688  0.77677304     0.16400
O902        O  0.16458933  0.00346497  0.82651509    -0.60600
H903        H  0.16740312  0.98168948  0.81106717     0.43400
H904        H  0.06220271  0.06371838  0.74737061     0.43300
C905        C  0.11907120  0.94308976  0.51741164    -0.05700
C906        C  0.14890291  0.95607984  0.52309410    -0.33100
C907        C  0.15597959  0.97912648  0.55137482     0.36100
C908        C  0.13333916  0.98889732  0.57501505    -0.06100
C909        C  0.10430664  0.97321376  0.57140911    -0.33000
C910        C  0.09709306  0.95022564  0.54304365     0.36000
H911        H  0.16633402  0.95085894  0.50403866     0.16400
O912        O  0.18460751  0.99379112  0.55449603    -0.60500
H913        H  0.08661006  0.98080511  0.58942436     0.16400
O914        O  0.06771906  0.93846560  0.53880314    -0.60600
H915        H  0.06716335  0.91288529  0.54856876     0.43400
H916        H  0.18433212  0.01709972  0.54061927     0.43300
C917        C  0.47157279  0.01738647  0.00275915    -0.05700
C918        C  0.50159583  0.03023747  0.00760168    -0.33100
C919        C  0.52545353  0.01697737  0.98735142     0.36100
C920        C  0.01976322  0.99024892  0.96149177    -0.06100
C921        C  0.98972960  0.97741565  0.95659048    -0.33000
C922        C  0.46590603  0.99043555  0.47705916     0.36000
H923        H  0.50672959  0.05114459  0.02705471     0.16400
O924        O  0.55418732  0.03028850  0.99326000    -0.60500
H925        H  0.98459412  0.95666718  0.43698465     0.16400
O926        O  0.43711431  0.97751449  0.47080991    -0.60600
H927        H  0.93553401  0.95387679  0.48406031     0.43400
H928        H  0.56206237  0.01547522  0.01307850     0.43300
O929        O  0.55770978  0.91532704  0.34622613    -0.85600
O930        O  0.61161831  0.95466599  0.33884796    -0.82600
C931        C  0.60425101  0.98758459  0.34652152     0.97900
O932        O  0.59383500  0.99459777  0.37609166    -0.82700
O933        O  0.57199071  0.98310353  0.44321860    -0.85300
C934        C  0.54468217  0.97120419  0.44291379     1.02400
O935        O  0.53831845  0.94052424  0.42919710    -0.78100
O936        O  0.54138165  0.88025931  0.38887872    -0.78300
C937        C  0.53621076  0.89893159  0.36143636     1.02300
O938        O  0.59157286  0.85224836  0.37319387    -0.85600
O939        O  0.64169422  0.89669673  0.37437787    -0.82700
C940        C  0.65964553  0.92255713  0.38292125     0.97900
O941        O  0.64947536  0.95388357  0.39322841    -0.82700
O942        O  0.62680091  0.94098786  0.45714404    -0.85300
C943        C  0.61017767  0.93104599  0.48176140     1.02400
O944        O  0.58471955  0.91600796  0.47516186    -0.78100
O945        O  0.59279795  0.85457427  0.42985223    -0.78300
C946        C  0.59529307  0.83602240  0.40219330     1.02300
Cr947      Cr  0.59986315  0.90591448  0.36081011     1.93700
Cr948      Cr  0.60915731  0.96543226  0.41633029     1.93200
Cr949      Cr  0.56646437  0.89913598  0.42907685     1.39100
O950        O  0.59194329  0.92374985  0.40228123    -1.23300
O951        O  0.54251488  0.63008170  0.39184283    -0.85600
O952        O  0.53986398  0.56962050  0.43202086    -0.82600
C953        C  0.54630410  0.53859972  0.44492450     0.97900
O954        O  0.57371870  0.52738747  0.44585140    -0.82700
O955        O  0.59535736  0.51523450  0.37878832    -0.85300
C956        C  0.60441181  0.52245888  0.34856323     1.02400
O957        O  0.61111237  0.55560430  0.34027699    -0.78100
O958        O  0.55780818  0.59513459  0.34904647    -0.78300
C959        C  0.53663634  0.61131121  0.36470140     1.02300
O960        O  0.59444887  0.65586393  0.43181305    -0.85600
O961        O  0.58663048  0.59474968  0.47718666    -0.82700
C962        C  0.61247675  0.58100346  0.48333422     0.97900
O963        O  0.62872779  0.57110086  0.45850389    -0.82700
O964        O  0.65053643  0.55723435  0.39422444    -0.85300
C965        C  0.66037198  0.58826337  0.38243225     1.02400
O966        O  0.64229532  0.61400952  0.37485448    -0.78100
O967        O  0.59269031  0.65837076  0.37513976    -0.78300
C968        C  0.59641872  0.67459487  0.40417672     1.02300
Cr969      Cr  0.56800672  0.61122173  0.43145479     1.93700
Cr970      Cr  0.61069386  0.54550909  0.41840877     1.93200
Cr971      Cr  0.60025036  0.60458324  0.36252831     1.39100
O972        O  0.59304851  0.58674744  0.40423703    -1.23300
O973        O  0.79077920  0.87836581  0.32533127    -0.85600
O974        O  0.78767948  0.93943402  0.28535463    -0.82600
C975        C  0.79438236  0.97000471  0.27155854     0.97900
O976        O  0.82199142  0.98071354  0.27003196    -0.82700
O977        O  0.84501640  0.99268204  0.33646773    -0.85300
C978        C  0.85475117  0.98554010  0.36646183     1.02400
O979        O  0.86142722  0.95253070  0.37484758    -0.78100
O980        O  0.80730745  0.91350714  0.36768913    -0.78300
C981        C  0.78566157  0.89711101  0.35253315     1.02300
O982        O  0.84128417  0.85304335  0.28415597    -0.85600
O983        O  0.83271404  0.91410688  0.23918930    -0.82700
C984        C  0.85852500  0.92761290  0.23219832     0.97900
O985        O  0.87609618  0.93644305  0.25642894    -0.82700
O986        O  0.89953005  0.95054223  0.32011941    -0.85300
C987        C  0.90947780  0.91934142  0.33114438     1.02400
O988        O  0.89136233  0.89400096  0.34031642    -0.78100
O989        O  0.84110512  0.85001860  0.34091562    -0.78300
C990        C  0.84424780  0.83426650  0.31166543     1.02300
Cr991      Cr  0.81526198  0.89746079  0.28520346     1.93700
Cr992      Cr  0.85930844  0.96241616  0.29682776     1.93200
Cr993      Cr  0.84949351  0.90369995  0.35332351     1.39100
O994        O  0.84146207  0.92150445  0.31169840    -1.23300
O995        O  0.80769156  0.59291335  0.36277757    -0.85600
O996        O  0.86113517  0.55452916  0.37157777    -0.82600
C997        C  0.85441948  0.52165791  0.36258576     0.97900
O998        O  0.84618340  0.51481545  0.33197956    -0.82700
O999        O  0.82426086  0.52704069  0.26531649    -0.85300
C1000       C  0.79666719  0.53747470  0.26696157     1.02400
O1001       O  0.79003585  0.56799259  0.28045367    -0.78100
O1002       O  0.79185847  0.62832873  0.32035304    -0.78300
C1003       C  0.78631887  0.60914559  0.34733226     1.02300
O1004       O  0.84179652  0.65726263  0.33745458    -0.85600
O1005       O  0.89194432  0.61407857  0.33845357    -0.82700
C1006       C  0.91033188  0.58894395  0.33042178     0.97900
O1007       O  0.90093410  0.55808318  0.31773798    -0.82700
O1008       O  0.87869368  0.57194859  0.25282263    -0.85300
C1009       C  0.86145479  0.58064822  0.22822089     1.02400
O1010       O  0.83564220  0.59410374  0.23489375    -0.78100
O1011       O  0.84314430  0.65515113  0.28065266    -0.78300
C1012       C  0.84507963  0.67361904  0.30841062     1.02300
Cr1013     Cr  0.84995809  0.60354183  0.34979724     1.93700
Cr1014     Cr  0.86122960  0.54570072  0.29300734     1.93200
Cr1015     Cr  0.81736098  0.61018939  0.28075630     1.39100
O1016       O  0.84308068  0.58624608  0.30771580    -1.23300
O1017       O  0.93442576  0.41585463  0.11277131    -0.85600
O1018       O  0.88133954  0.45602474  0.12113058    -0.82600
C1019       C  0.88834999  0.48885122  0.11219273     0.97900
O1020       O  0.89761249  0.49520845  0.08191648    -0.82700
O1021       O  0.91803544  0.48151331  0.01476158    -0.85300
C1022       C  0.94525169  0.46971787  0.01520559     1.02400
O1023       O  0.95151224  0.43877581  0.02842500    -0.78100
O1024       O  0.94902839  0.37977630  0.07045352    -0.78300
C1025       C  0.95536175  0.39919921  0.09710878     1.02300
O1026       O  0.89905868  0.35224435  0.08885077    -0.85600
O1027       O  0.84944268  0.39729295  0.08841243    -0.82700
C1028       C  0.83163272  0.42313688  0.07996295     0.97900
O1029       O  0.84176009  0.45385385  0.06788544    -0.82700
O1030       O  0.86254344  0.43856029  0.50376660    -0.85300
C1031       C  0.87865165  0.42870663  0.47884333     1.02400
O1032       O  0.90395669  0.41340002  0.48491211    -0.78100
O1033       O  0.89648679  0.35266251  0.03220226    -0.78300
C1034       C  0.89513499  0.33481776  0.06049326     1.02300
Cr1035     Cr  0.89176151  0.40645940  0.10002492     1.93700
Cr1036     Cr  0.88136614  0.46447690  0.04310369     1.93200
Cr1037     Cr  0.92305805  0.39751941  0.03072823     1.39100
O1038       O  0.89863802  0.42311773  0.05778371    -1.23300
O1039       O  0.95027475  0.12778545  0.07556679    -0.85600
O1040       O  0.95321196  0.06700040  0.03551406    -0.82600
C1041       C  0.94670799  0.03654435  0.02137350     0.97900
O1042       O  0.91931866  0.02497731  0.02073485    -0.82700
O1043       O  0.89723947  0.01345612  0.08776056    -0.85300
C1044       C  0.88704597  0.02062599  0.11741089     1.02400
O1045       O  0.87992376  0.05360728  0.12515682    -0.78100
O1046       O  0.93384788  0.09278932  0.11810367    -0.78300
C1047       C  0.95538459  0.10929629  0.10307647     1.02300
O1048       O  0.89942860  0.15376072  0.03424457    -0.85600
O1049       O  0.90752556  0.09206890  0.48939604    -0.82700
C1050       C  0.88208334  0.07733142  0.48238086     0.97900
O1051       O  0.86485959  0.06767689  0.50655442    -0.82700
O1052       O  0.84189848  0.05444042  0.07061825    -0.85300
C1053       C  0.83180086  0.08560706  0.08137179     1.02400
O1054       O  0.84978578  0.11152130  0.08975398    -0.78100
O1055       O  0.89998302  0.15624701  0.09091902    -0.78300
C1056       C  0.89689571  0.17251945  0.06177632     1.02300
Cr1057     Cr  0.92542372  0.10885835  0.03536705     1.93700
Cr1058     Cr  0.88218672  0.04289854  0.04753766     1.93200
Cr1059     Cr  0.89167333  0.10236323  0.10330847     1.39100
O1060       O  0.89958787  0.08447574  0.06185782    -1.23300
O1061       O  0.69914927  0.37999319  0.13965451    -0.85600
O1062       O  0.70233088  0.43883941  0.18116440    -0.82600
C1063       C  0.69632046  0.46986667  0.19406174     0.97900
O1064       O  0.66900494  0.48144685  0.19527141    -0.82700
O1065       O  0.64768499  0.49576822  0.12925217    -0.85300
C1066       C  0.63923718  0.48997903  0.09860808     1.02400
O1067       O  0.63219552  0.45745436  0.08884448    -0.78100
O1068       O  0.68498469  0.41716531  0.09772542    -0.78300
C1069       C  0.70567992  0.39971514  0.11330218     1.02300
O1070       O  0.64660004  0.35366698  0.17752592    -0.85600
O1071       O  0.65530225  0.41425111  0.22541370    -0.82700
C1072       C  0.63002230  0.42944025  0.23169925     0.97900
O1073       O  0.61332256  0.43836851  0.20676520    -0.82700
O1074       O  0.59177211  0.45366094  0.14230955    -0.85300
C1075       C  0.58206765  0.42320059  0.12905256     1.02400
O1076       O  0.60015679  0.39798285  0.12038188    -0.78100
O1077       O  0.64937592  0.35320404  0.12081088    -0.78300
C1078       C  0.64511159  0.33590031  0.14920194     1.02300
Cr1079     Cr  0.67362743  0.39795336  0.17929159     1.93700
Cr1080     Cr  0.63169679  0.46455543  0.16733977     1.93200
Cr1081     Cr  0.64235965  0.40756843  0.10971661     1.39100
O1082       O  0.64906301  0.42365186  0.15225492    -1.23300
O1083       O  0.68424995  0.09335183  0.09703804    -0.85600
O1084       O  0.63113914  0.05246822  0.09016025    -0.82600
C1085       C  0.63800867  0.01982638  0.09964147     0.97900
O1086       O  0.64675532  0.01364996  0.13023916    -0.82700
O1087       O  0.66957724  0.02874489  0.19631457    -0.85300
C1088       C  0.69702735  0.04009170  0.19495139     1.02400
O1089       O  0.70342099  0.07051989  0.18065698    -0.78100
O1090       O  0.69976693  0.13006290  0.13866850    -0.78300
C1091       C  0.70552585  0.11054114  0.11212707     1.02300
O1092       O  0.64910312  0.15694535  0.12149719    -0.85600
O1093       O  0.59949561  0.11131680  0.12283313    -0.82700
C1094       C  0.58171577  0.08602069  0.13309839     0.97900
O1095       O  0.59203004  0.05539589  0.14489121    -0.82700
O1096       O  0.61479770  0.07246742  0.20814139    -0.85300
C1097       C  0.63206221  0.08201243  0.23240085     1.02400
O1098       O  0.65761135  0.09623450  0.22538263    -0.78100
O1099       O  0.64850239  0.15597977  0.17825260    -0.78300
C1100       C  0.64590543  0.17393922  0.15018877     1.02300
Cr1101     Cr  0.64173458  0.10242477  0.11060404     1.93700
Cr1102     Cr  0.63216665  0.04532584  0.16877052     1.93200
Cr1103     Cr  0.67514237  0.11183737  0.17901200     1.39100
O1104       O  0.64963559  0.08614178  0.15283288    -1.23300
C1105       C  0.64136530  0.29452661  0.14922172    -0.05700
C1106       C  0.64118475  0.27492743  0.18087031    -0.33100
C1107       C  0.64133011  0.23583931  0.18173185     0.36100
C1108       C  0.64179340  0.21520878  0.15050719    -0.06100
C1109       C  0.64035611  0.23478818  0.11888401    -0.33000
C1110       C  0.64025618  0.27385499  0.11800081     0.36000
H1111       H  0.64188924  0.28991214  0.20525255     0.16400
O1112       O  0.64235847  0.21830797  0.21337450    -0.60500
H1113       H  0.64023708  0.21983371  0.09447336     0.16400
O1114       O  0.63943351  0.29139438  0.08632536    -0.60600
H1115       H  0.66062393  0.29120175  0.07791531     0.43400
H1116       H  0.62088803  0.21426951  0.21986592     0.43300
C1117       C  0.98670405  0.10562861  0.11605951    -0.05700
C1118       C  0.49601224  0.07221555  0.13189040    -0.33100
C1119       C  0.52674702  0.06553307  0.13871659     0.36100
C1120       C  0.54867953  0.09255111  0.12961000    -0.06100
C1121       C  0.53888745  0.12677984  0.11573448    -0.33000
C1122       C  0.50837029  0.13337286  0.10897794     0.36000
H1123       H  0.47961272  0.05045923  0.13742449     0.16400
O1124       O  0.53503743  0.03196198  0.15282331    -0.60500
H1125       H  0.55501415  0.14848045  0.10913806     0.16400
O1126       O  0.00010551  0.16673302  0.09440019    -0.60600
H1127       H  0.99377730  0.18248710  0.11417749     0.43400
H1128       H  0.53556145  0.03615954  0.17826846     0.43300
C1129       C  0.79894724  0.09215525  0.08639433    -0.05700
C1130       C  0.79014726  0.12422902  0.10465136    -0.33100
C1131       C  0.75984089  0.13141157  0.11167909     0.36100
C1132       C  0.73720703  0.10641627  0.10041771    -0.06100
C1133       C  0.74569201  0.07493993  0.08104816    -0.33000
C1134       C  0.77630257  0.06751091  0.07426033     0.36000
H1135       H  0.80689954  0.14381840  0.11434519     0.16400
O1136       O  0.75277068  0.16257736  0.13048528    -0.60500
H1137       H  0.72867932  0.05518545  0.07230923     0.16400
O1138       O  0.78370831  0.03629876  0.05570979    -0.60600
H1139       H  0.78194726  0.01530590  0.07237385     0.43400
H1140       H  0.75088079  0.18287197  0.11311447     0.43300
C1141       C  0.79898373  0.41718261  0.08642404    -0.05700
C1142       C  0.79036178  0.38712115  0.10773159    -0.33100
C1143       C  0.76013071  0.38029709  0.11554729     0.36100
C1144       C  0.73746274  0.40367249  0.10202285    -0.06100
C1145       C  0.74585804  0.43334867  0.08002132    -0.33000
C1146       C  0.77637350  0.44039009  0.07240324     0.36000
H1147       H  0.80720283  0.36886477  0.11906707     0.16400
O1148       O  0.75320680  0.35111111  0.13719488    -0.60500
H1149       H  0.72883191  0.45190755  0.06951317     0.16400
O1150       O  0.78370045  0.46963422  0.05099880    -0.60600
H1151       H  0.78406694  0.49188171  0.06623235     0.43400
H1152       H  0.74909409  0.32971352  0.12158201     0.43300
C1153       C  0.98733343  0.40349457  0.10835017    -0.05700
C1154       C  0.50965593  0.38399556  0.09027263    -0.33100
C1155       C  0.54028440  0.39020644  0.09688125     0.36100
C1156       C  0.54948111  0.41665497  0.12206204    -0.06100
C1157       C  0.52727161  0.43584686  0.14067827    -0.33000
C1158       C  0.49639216  0.42942279  0.13407903     0.36000
H1159       H  0.00347789  0.36426747  0.07015022     0.16400
O1160       O  0.56103365  0.37139354  0.07722028    -0.60500
H1161       H  0.53382365  0.45584554  0.16041006     0.16400
O1162       O  0.97538960  0.44889029  0.15274910    -0.60600
H1163       H  0.47327441  0.47308987  0.14052041     0.43400
H1164       H  0.56288970  0.34651372  0.08827989     0.43300
C1165       C  0.89186776  0.29328062  0.06072035    -0.05700
C1166       C  0.89111397  0.27323283  0.02932197    -0.33100
C1167       C  0.89144928  0.23403013  0.02904461     0.36100
C1168       C  0.89282542  0.21383532  0.06057373    -0.06100
C1169       C  0.89206030  0.23388520  0.09187040    -0.33000
C1170       C  0.89167120  0.27291265  0.09219531     0.36000
H1171       H  0.89106561  0.28795413  0.50474267     0.16400
O1172       O  0.89152111  0.21596858  0.49770260    -0.60500
H1173       H  0.89262601  0.21932881  0.11653182     0.16400
O1174       O  0.89148225  0.29073163  0.12367347    -0.60600
H1175       H  0.91296890  0.29160646  0.13127022     0.43400
H1176       H  0.86993794  0.21037224  0.49262095     0.43300
C1177       C  0.85895521  0.49102691  0.38746345    -0.05700
C1178       C  0.83510846  0.47898372  0.40851686    -0.33100
C1179       C  0.84054972  0.45468606  0.43638599     0.36100
C1180       C  0.87032108  0.44225170  0.44361027    -0.06100
C1181       C  0.89358108  0.45189068  0.42043160    -0.33000
C1182       C  0.88809930  0.47638181  0.39275553     0.36000
H1183       H  0.81256989  0.49004198  0.40454187     0.16400
O1184       O  0.81703345  0.44575834  0.45804445    -0.60500
H1185       H  0.91665829  0.44330806  0.42558296     0.16400
O1186       O  0.91190250  0.48828345  0.37277490    -0.60600
H1187       H  0.91127492  0.47233881  0.35178784     0.43400
H1188       H  0.80987388  0.42091213  0.45019899     0.43300
C1189       C  0.88212266  0.51973250  0.13642308    -0.05700
C1190       C  0.90567142  0.53777469  0.15435272    -0.33100
C1191       C  0.89929329  0.56123833  0.18263633     0.36100
C1192       C  0.86898920  0.56744211  0.19275044    -0.06100
C1193       C  0.84555655  0.55223380  0.17235448    -0.33000
C1194       C  0.85193508  0.52825596  0.14473362     0.36000
H1195       H  0.92900096  0.53176680  0.14795688     0.16400
O1196       O  0.92279368  0.57686011  0.20105861    -0.60500
H1197       H  0.82213781  0.55612155  0.17972685     0.16400
O1198       O  0.82842136  0.51114239  0.12754322    -0.60600
H1199       H  0.82344569  0.52799840  0.10792281     0.43400
H1200       H  0.93107016  0.55640701  0.21556378     0.43300
C1201       C  0.77141767  0.51708069  0.25011852    -0.05700
C1202       C  0.77642909  0.49736699  0.21939215    -0.33100
C1203       C  0.75199628  0.48393368  0.19969216     0.36100
C1204       C  0.72181993  0.48980601  0.21080540    -0.06100
C1205       C  0.71684445  0.50940365  0.24153767    -0.33000
C1206       C  0.74123533  0.52289437  0.26119375     0.36000
H1207       H  0.79926798  0.49346375  0.20995561     0.16400
O1208       O  0.75791442  0.46476917  0.16969415    -0.60500
H1209       H  0.69402269  0.51313343  0.25109131     0.16400
O1210       O  0.73535054  0.54094085  0.29181721    -0.60600
H1211       H  0.72809706  0.56605061  0.28502886     0.43400
H1212       H  0.75733954  0.48373729  0.15094454     0.43300
C1213       C  0.76954295  0.99047294  0.25400429    -0.05700
C1214       C  0.77601907  0.01360643  0.22565412    -0.33100
C1215       C  0.75268091  0.02826261  0.20513256     0.36100
C1216       C  0.72198133  0.02035804  0.21305073    -0.06100
C1217       C  0.71551270  0.99733320  0.24147776    -0.33000
C1218       C  0.73883757  0.98274446  0.26203682     0.36000
H1219       H  0.79929168  0.01938734  0.21858002     0.16400
O1220       O  0.76025283  0.05036293  0.17734645    -0.60500
H1221       H  0.69224491  0.99139891  0.24844440     0.16400
O1222       O  0.73125523  0.96063426  0.28981397    -0.60600
H1223       H  0.73039479  0.97776240  0.30996837     0.43400
H1224       H  0.76174396  0.03311761  0.15733840     0.43300
C1225       C  0.84845525  0.79341732  0.30969110    -0.05700
C1226       C  0.84055742  0.77451046  0.27901659    -0.33100
C1227       C  0.84034735  0.73555482  0.27774090     0.36100
C1228       C  0.84857929  0.71466577  0.30737566    -0.06100
C1229       C  0.85798465  0.73362666  0.33746101    -0.33000
C1230       C  0.85809610  0.77257265  0.33874912     0.36000
H1231       H  0.83310019  0.78987402  0.25631601     0.16400
O1232       O  0.83072019  0.71833776  0.24785695    -0.60500
H1233       H  0.86473101  0.71819444  0.36041527     0.16400
O1234       O  0.86696812  0.78986217  0.36888022    -0.60600
H1235       H  0.88910586  0.79372134  0.36651214     0.43400
H1236       H  0.80838881  0.71648672  0.24997407     0.43300
C1237       C  0.86549283  0.94143143  0.19697406    -0.05700
C1238       C  0.84251202  0.96058721  0.17927224    -0.33100
C1239       C  0.84950789  0.98552379  0.15260309     0.36100
C1240       C  0.87972034  0.99045893  0.14202435    -0.06100
C1241       C  0.90249065  0.96868677  0.15725700    -0.33000
C1242       C  0.89562219  0.94479659  0.18517573     0.36000
H1243       H  0.81933534  0.95903314  0.18829461     0.16400
O1244       O  0.82683487  0.00679216  0.13849017    -0.60500
H1245       H  0.92580267  0.97210242  0.14916823     0.16400
O1246       O  0.91854757  0.92596119  0.20163108    -0.60600
H1247       H  0.92854225  0.94459045  0.21690335     0.43400
H1248       H  0.81926448  0.99233484  0.11830753     0.43300
C1249       C  0.86155057  0.01577160  0.39108825    -0.05700
C1250       C  0.83819869  0.03481423  0.40782630    -0.33100
C1251       C  0.84472690  0.05852272  0.43587959     0.36100
C1252       C  0.87498448  0.06390577  0.44695626    -0.06100
C1253       C  0.89838773  0.04744877  0.42790315    -0.33000
C1254       C  0.89181559  0.02295009  0.40065246     0.36000
H1255       H  0.81482959  0.02944340  0.40064106     0.16400
O1256       O  0.82128554  0.07416884  0.45383213    -0.60500
H1257       H  0.92174207  0.05070267  0.43618983     0.16400
O1258       O  0.91510260  0.00503281  0.38426798    -0.60600
H1259       H  0.91922336  0.98257944  0.39855039     0.43400
H1260       H  0.81912414  0.09958833  0.44401971     0.43300
C1261       C  0.52100039  0.51803323  0.46136472    -0.08900
C1262       C  0.49112270  0.52556451  0.45027760    -0.33100
C1263       C  0.96606215  0.51173753  0.96843198     0.36100
C1264       C  0.97052541  0.48974025  0.49820354    -0.06100
C1265       C  0.00038390  0.48199421  0.50912148    -0.33000
C1266       C  0.52542519  0.49589677  0.49102267     0.36000
H1267       H  0.48711776  0.54263628  0.42747523     0.16400
O1268       O  0.93748323  0.51828559  0.95580205    -0.60500
H1269       H  0.00441689  0.46476418  0.53181516     0.16400
O1270       O  0.55402931  0.48824091  0.50294263    -0.60600
H1271       H  0.05702438  0.50479452  0.52324565     0.43400
H1272       H  0.93226520  0.54362002  0.96399110     0.43300
C1273       C  0.00494955  0.60733011  0.35268184    -0.05700
C1274       C  0.98296982  0.63093177  0.36653694    -0.33100
C1275       C  0.95234271  0.62551401  0.35918838     0.36100
C1276       C  0.94290223  0.59573451  0.33752796    -0.06100
C1277       C  0.96491186  0.57232470  0.32327598    -0.33000
C1278       C  0.99571398  0.57798627  0.33054331     0.36000
H1279       H  0.98942300  0.65337477  0.38389769     0.16400
O1280       O  0.93181156  0.64848882  0.37491112    -0.60500
H1281       H  0.95825565  0.54929371  0.30671824     0.16400
O1282       O  0.51633686  0.55335319  0.31743556    -0.60600
H1283       H  0.52131045  0.56297275  0.29398233     0.43400
H1284       H  0.93108324  0.67118471  0.36019397     0.43300
C1285       C  0.69299492  0.59453493  0.37554516    -0.05700
C1286       C  0.71471282  0.56901645  0.38741096    -0.33100
C1287       C  0.74545950  0.57412669  0.37972622     0.36100
C1288       C  0.75486426  0.60504926  0.35963024    -0.06100
C1289       C  0.73322999  0.63065801  0.34821213    -0.33000
C1290       C  0.70272013  0.62582846  0.35599686     0.36000
H1291       H  0.70785192  0.54473490  0.40222811     0.16400
O1292       O  0.76575815  0.54750065  0.39013068    -0.60500
H1293       H  0.73987257  0.65437791  0.33248850     0.16400
O1294       O  0.68251563  0.65112502  0.34274421    -0.60600
H1295       H  0.68224520  0.67183270  0.35975133     0.43400
H1296       H  0.77165403  0.55452521  0.41412549     0.43300
C1297       C  0.62176979  0.56969461  0.01888869    -0.05700
C1298       C  0.59927660  0.56117279  0.04336009    -0.33100
C1299       C  0.60545141  0.53689583  0.07100846     0.36100
C1300       C  0.63451509  0.52148235  0.07480036    -0.06100
C1301       C  0.65789678  0.53356579  0.05311070    -0.33000
C1302       C  0.65180930  0.55798199  0.02555046     0.36000
H1303       H  0.57617349  0.57022791  0.03921013     0.16400
O1304       O  0.58252728  0.52679930  0.09310255    -0.60500
H1305       H  0.68049761  0.52241837  0.05631830     0.16400
O1306       O  0.67490381  0.56757399  0.00353611    -0.60600
H1307       H  0.68052385  0.59344968  0.00998111     0.43400
H1308       H  0.57442000  0.50294532  0.08387658     0.43300
C1309       C  0.61007347  0.49216094  0.32338520    -0.05700
C1310       C  0.58627779  0.47691427  0.30377641    -0.33100
C1311       C  0.59222723  0.45332852  0.27547265     0.36100
C1312       C  0.62238167  0.44395604  0.26685355    -0.06100
C1313       C  0.64591919  0.45697973  0.28844664    -0.33000
C1314       C  0.63996885  0.48113780  0.31621410     0.36000
H1315       H  0.56316716  0.48503940  0.30908756     0.16400
O1316       O  0.56847240  0.44070929  0.25554174    -0.60500
H1317       H  0.66926611  0.45097532  0.28211481     0.16400
O1318       O  0.66375789  0.49581616  0.33480602    -0.60600
H1319       H  0.66697416  0.47827147  0.35437721     0.43400
H1320       H  0.56229192  0.46228836  0.24107475     0.43300
C1321       C  0.75425451  0.90133786  0.36488293    -0.05700
C1322       C  0.74565185  0.93408998  0.38220123    -0.33100
C1323       C  0.71503928  0.94154947  0.38884555     0.36100
C1324       C  0.69254935  0.91569983  0.37864679    -0.06100
C1325       C  0.70157201  0.88219629  0.36286043    -0.33000
C1326       C  0.73189019  0.87500745  0.35591373     0.36000
H1327       H  0.76253854  0.95482186  0.38914795     0.16400
O1328       O  0.70747668  0.97419035  0.40501360    -0.60500
H1329       H  0.68498597  0.86151313  0.35492623     0.16400
O1330       O  0.73925013  0.84247830  0.33938974    -0.60600
H1331       H  0.74418470  0.82465168  0.35826280     0.43400
H1332       H  0.70652945  0.99308448  0.38621095     0.43300
C1333       C  0.00488123  0.90259368  0.34857453    -0.05700
C1334       C  0.98429350  0.87363050  0.35468114    -0.33100
C1335       C  0.95346629  0.87824513  0.34800953     0.36100
C1336       C  0.94248067  0.91266680  0.33514550    -0.06100
C1337       C  0.96338615  0.94119213  0.32765618    -0.33000
C1338       C  0.99438446  0.93630040  0.33407480     0.36000
H1339       H  0.99203470  0.84747255  0.36558630     0.16400
O1340       O  0.93433568  0.84888699  0.35470167    -0.60500
H1341       H  0.95566285  0.96780182  0.31778379     0.16400
O1342       O  0.51382738  0.96565676  0.32866172    -0.60600
H1343       H  0.01934936  0.96422759  0.30377399     0.43400
H1344       H  0.93007684  0.85027238  0.37993121     0.43300
C1345       C  0.59984100  0.79494378  0.40341325    -0.05700
C1346       C  0.59772379  0.77564466  0.43514751    -0.33100
C1347       C  0.59789101  0.73651929  0.43623605     0.36100
C1348       C  0.60035661  0.71582051  0.40518645    -0.06100
C1349       C  0.60432603  0.73524579  0.37383043    -0.33000
C1350       C  0.60423940  0.77418324  0.37274187     0.36000
H1351       H  0.59475268  0.79081721  0.45917130     0.16400
O1352       O  0.59479993  0.71897974  0.46770670    -0.60500
H1353       H  0.60675516  0.72020648  0.34964720     0.16400
O1354       O  0.60742375  0.79148716  0.34118002    -0.60600
H1355       H  0.62955803  0.79488221  0.33819269     0.43400
H1356       H  0.57270525  0.71834416  0.47216909     0.43300
C1357       C  0.61137557  0.01791051  0.32195964    -0.05700
C1358       C  0.58839661  0.03934115  0.30672896    -0.33100
C1359       C  0.59508706  0.06377200  0.27916266     0.36100
C1360       C  0.62522920  0.06800858  0.26764039    -0.06100
C1361       C  0.64839971  0.04926468  0.28543860    -0.33000
C1362       C  0.64158818  0.02364942  0.31167991     0.36000
H1363       H  0.56508680  0.03534372  0.31461040     0.16400
O1364       O  0.57198931  0.08237488  0.26279710    -0.60500
H1365       H  0.67163400  0.05167655  0.27677315     0.16400
O1366       O  0.66458920  0.00346494  0.32651545    -0.60600
H1367       H  0.66740315  0.98168972  0.31106754     0.43400
H1368       H  0.56220267  0.06371790  0.24737055     0.43300
C1369       C  0.61907100  0.94309001  0.01741150    -0.05700
C1370       C  0.64890277  0.95607978  0.02309412    -0.33100
C1371       C  0.65597945  0.97912639  0.05137487     0.36100
C1372       C  0.63333898  0.98889751  0.07501494    -0.06100
C1373       C  0.60430635  0.97321432  0.07140883    -0.33000
C1374       C  0.59709276  0.95022621  0.04304338     0.36000
H1375       H  0.66633394  0.95085865  0.00403880     0.16400
O1376       O  0.68460743  0.99379077  0.05449631    -0.60500
H1377       H  0.58660974  0.98080594  0.08942394     0.16400
O1378       O  0.56771864  0.93846666  0.03880264    -0.60600
H1379       H  0.56716258  0.91288655  0.04856803     0.43400
H1380       H  0.68433223  0.01709937  0.04061953     0.43300
C1381       C  0.97157271  0.01738649  0.50275910    -0.05700
C1382       C  0.00159576  0.03023724  0.50760191    -0.33100
C1383       C  0.02545351  0.01697707  0.48735178     0.36100
C1384       C  0.51976323  0.99024880  0.46149198    -0.06100
C1385       C  0.48972957  0.97741584  0.45659037    -0.33000
C1386       C  0.96590611  0.99043531  0.97705937     0.36000
H1387       H  0.00672952  0.05114420  0.52705509     0.16400
O1388       O  0.05418732  0.03028794  0.49326063    -0.60500
H1389       H  0.48459409  0.95666674  0.93698504     0.16400
O1390       O  0.93711440  0.97751403  0.97081038    -0.60600
H1391       H  0.43553442  0.95387598  0.98406094     0.43400
H1392       H  0.06206213  0.01547456  0.51307909     0.43300
O1393       O  0.55770985  0.91532703  0.84622590    -0.85600
O1394       O  0.61161841  0.95466602  0.83884782    -0.82600
C1395       C  0.60425116  0.98758463  0.84652139     0.97900
O1396       O  0.59383515  0.99459783  0.87609153    -0.82700
O1397       O  0.57199068  0.98310351  0.94321842    -0.85300
C1398       C  0.54468211  0.97120426  0.94291352     1.02400
O1399       O  0.53831839  0.94052431  0.92919682    -0.78100
O1400       O  0.54138165  0.88025937  0.88887853    -0.78300
C1401       C  0.53621081  0.89893158  0.86143611     1.02300
O1402       O  0.59157292  0.85224842  0.87319376    -0.85600
O1403       O  0.64169425  0.89669675  0.87437785    -0.82700
C1404       C  0.65964556  0.92255712  0.88292130     0.97900
O1405       O  0.64947538  0.95388358  0.89322839    -0.82700
O1406       O  0.62680082  0.94098785  0.95714392    -0.85300
C1407       C  0.61017752  0.93104607  0.98176126     1.02400
O1408       O  0.58471942  0.91600800  0.97516168    -0.78100
O1409       O  0.59279797  0.85457434  0.92985211    -0.78300
C1410       C  0.59529315  0.83602247  0.90219319     1.02300
Cr1411     Cr  0.59986322  0.90591451  0.86080998     1.93700
Cr1412     Cr  0.60915730  0.96543226  0.91633018     1.93200
Cr1413     Cr  0.56646433  0.89913603  0.92907667     1.39100
O1414       O  0.59194328  0.92374987  0.90228108    -1.23300
O1415       O  0.54251490  0.63008199  0.89184282    -0.85600
O1416       O  0.53986396  0.56962075  0.93202079    -0.82600
C1417       C  0.54630407  0.53859999  0.94492447     0.97900
O1418       O  0.57371866  0.52738772  0.94585139    -0.82700
O1419       O  0.59535723  0.51523475  0.87878827    -0.85300
C1420       C  0.60441174  0.52245908  0.84856319     1.02400
O1421       O  0.61111237  0.55560448  0.84027696    -0.78100
O1422       O  0.55780819  0.59513478  0.84904654    -0.78300
C1423       C  0.53663636  0.61131144  0.86470141     1.02300
O1424       O  0.59444902  0.65586400  0.93181305    -0.85600
O1425       O  0.58663046  0.59474975  0.97718668    -0.82700
C1426       C  0.61247673  0.58100352  0.98333427     0.97900
O1427       O  0.62872779  0.57110091  0.95850397    -0.82700
O1428       O  0.65053644  0.55723450  0.89422445    -0.85300
C1429       C  0.66037201  0.58826351  0.88243226     1.02400
O1430       O  0.64229534  0.61400964  0.87485442    -0.78100
O1431       O  0.59269032  0.65837084  0.87513979    -0.78300
C1432       C  0.59641882  0.67459495  0.90417672     1.02300
Cr1433     Cr  0.56800675  0.61122191  0.93145480     1.93700
Cr1434     Cr  0.61069384  0.54550922  0.91840879     1.93200
Cr1435     Cr  0.60025036  0.60458337  0.86252834     1.39100
O1436       O  0.59304852  0.58674757  0.90423707    -1.23300
O1437       O  0.79077911  0.87836584  0.82533128    -0.85600
O1438       O  0.78767948  0.93943403  0.78535460    -0.82600
C1439       C  0.79438236  0.97000469  0.77155849     0.97900
O1440       O  0.82199142  0.98071352  0.77003190    -0.82700
O1441       O  0.84501661  0.99268200  0.83646761    -0.85300
C1442       C  0.85475131  0.98554000  0.86646174     1.02400
O1443       O  0.86142726  0.95253056  0.87484748    -0.78100
O1444       O  0.80730749  0.91350714  0.86768910    -0.78300
C1445       C  0.78566158  0.89711099  0.85253321     1.02300
O1446       O  0.84128404  0.85304326  0.78415592    -0.85600
O1447       O  0.83271398  0.91410674  0.73918919    -0.82700
C1448       C  0.85852495  0.92761274  0.73219816     0.97900
O1449       O  0.87609615  0.93644287  0.75642875    -0.82700
O1450       O  0.89953010  0.95054200  0.82011917    -0.85300
C1451       C  0.90947782  0.91934124  0.83114426     1.02400
O1452       O  0.89136233  0.89400079  0.84031635    -0.78100
O1453       O  0.84110494  0.85001849  0.84091556    -0.78300
C1454       C  0.84424762  0.83426641  0.81166538     1.02300
Cr1455     Cr  0.81526191  0.89746074  0.78520341     1.93700
Cr1456     Cr  0.85930848  0.96241602  0.79682761     1.93200
Cr1457     Cr  0.84949349  0.90369983  0.85332343     1.39100
O1458       O  0.84146206  0.92150435  0.81169831    -1.23300
O1459       O  0.80769164  0.59291338  0.86277751    -0.85600
O1460       O  0.86113539  0.55452922  0.87157757    -0.82600
C1461       C  0.85441959  0.52165798  0.86258565     0.97900
O1462       O  0.84618341  0.51481550  0.83197948    -0.82700
O1463       O  0.82426093  0.52704075  0.76531642    -0.85300
C1464       C  0.79666724  0.53747466  0.76696155     1.02400
O1465       O  0.79003587  0.56799255  0.78045366    -0.78100
O1466       O  0.79185846  0.62832877  0.82035302    -0.78300
C1467       C  0.78631890  0.60914558  0.84733221     1.02300
O1468       O  0.84179654  0.65726267  0.83745447    -0.85600
O1469       O  0.89194435  0.61407875  0.83845342    -0.82700
C1470       C  0.91033192  0.58894415  0.83042159     0.97900
O1471       O  0.90093414  0.55808338  0.81773780    -0.82700
O1472       O  0.87869368  0.57194880  0.75282252    -0.85300
C1473       C  0.86145474  0.58064841  0.72822082     1.02400
O1474       O  0.83564214  0.59410383  0.73489374    -0.78100
O1475       O  0.84314416  0.65515122  0.78065254    -0.78300
C1476       C  0.84507955  0.67361910  0.80841051     1.02300
Cr1477     Cr  0.84995817  0.60354191  0.84979714     1.93700
Cr1478     Cr  0.86122964  0.54570083  0.79300723     1.93200
Cr1479     Cr  0.81736095  0.61018942  0.78075627     1.39100
O1480       O  0.84308071  0.58624616  0.80771574    -1.23300
O1481       O  0.93442572  0.41585497  0.61277143    -0.85600
O1482       O  0.88133940  0.45602510  0.62113057    -0.82600
C1483       C  0.88834982  0.48885156  0.61219261     0.97900
O1484       O  0.89761240  0.49520866  0.58191637    -0.82700
O1485       O  0.91803532  0.48151329  0.51476147    -0.85300
C1486       C  0.94525158  0.46971789  0.51520559     1.02400
O1487       O  0.95151211  0.43877587  0.52842509    -0.78100
O1488       O  0.94902832  0.37977648  0.57045373    -0.78300
C1489       C  0.95536168  0.39919941  0.59710898     1.02300
O1490       O  0.89905868  0.35224455  0.58885114    -0.85600
O1491       O  0.84944261  0.39729323  0.58841262    -0.82700
C1492       C  0.83163261  0.42313707  0.57996296     0.97900
O1493       O  0.84175995  0.45385401  0.56788536    -0.82700
O1494       O  0.86254364  0.43856039  0.00376655    -0.85300
C1495       C  0.87865189  0.42870679  0.97884329     1.02400
O1496       O  0.90395689  0.41340009  0.98491203    -0.78100
O1497       O  0.89648659  0.35266261  0.53220264    -0.78300
C1498       C  0.89513498  0.33481787  0.56049367     1.02300
Cr1499     Cr  0.89176145  0.40645969  0.60002509     1.93700
Cr1500     Cr  0.88136603  0.46447697  0.54310364     1.93200
Cr1501     Cr  0.92305791  0.39751947  0.53072840     1.39100
O1502       O  0.89863792  0.42311788  0.55778383    -1.23300
O1503       O  0.95027464  0.12778542  0.57556676    -0.85600
O1504       O  0.95321188  0.06700061  0.53551377    -0.82600
C1505       C  0.94670790  0.03654449  0.52137334     0.97900
O1506       O  0.91931857  0.02497748  0.52073466    -0.82700
O1507       O  0.89723947  0.01345616  0.58776039    -0.85300
C1508       C  0.88704586  0.02062589  0.61741070     1.02400
O1509       O  0.87992356  0.05360712  0.62515669    -0.78100
O1510       O  0.93384779  0.09278912  0.61810356    -0.78300
C1511       C  0.95538449  0.10929610  0.60307635     1.02300
O1512       O  0.89942851  0.15376088  0.53424473    -0.85600
O1513       O  0.90752576  0.09206858  0.98939612    -0.82700
C1514       C  0.88208351  0.07733116  0.98238096     0.97900
O1515       O  0.86485972  0.06767680  0.00655455    -0.82700
O1516       O  0.84189841  0.05444048  0.57061799    -0.85300
C1517       C  0.83180079  0.08560710  0.58137160     1.02400
O1518       O  0.84978571  0.11152128  0.58975397    -0.78100
O1519       O  0.89998298  0.15624695  0.59091919    -0.78300
C1520       C  0.89689567  0.17251951  0.56177654     1.02300
Cr1521     Cr  0.92542359  0.10885851  0.53536699     1.93700
Cr1522     Cr  0.88218665  0.04289863  0.54753749     1.93200
Cr1523     Cr  0.89167323  0.10236313  0.60330846     1.39100
O1524       O  0.89958776  0.08447581  0.56185773    -1.23300
O1525       O  0.69914925  0.37999315  0.63965446    -0.85600
O1526       O  0.70233097  0.43883927  0.68116437    -0.82600
C1527       C  0.69632057  0.46986657  0.69406163     0.97900
O1528       O  0.66900507  0.48144684  0.69527127    -0.82700
O1529       O  0.64768504  0.49576818  0.62925215    -0.85300
C1530       C  0.63923723  0.48997896  0.59860807     1.02400
O1531       O  0.63219548  0.45745431  0.58884453    -0.78100
O1532       O  0.68498462  0.41716526  0.59772537    -0.78300
C1533       C  0.70567986  0.39971510  0.61330210     1.02300
O1534       O  0.64660001  0.35366696  0.67752588    -0.85600
O1535       O  0.65530242  0.41425110  0.72541380    -0.82700
C1536       C  0.63002250  0.42944031  0.73169937     0.97900
O1537       O  0.61332274  0.43836858  0.70676534    -0.82700
O1538       O  0.59177213  0.45366087  0.64230957    -0.85300
C1539       C  0.58206763  0.42320048  0.62905266     1.02400
O1540       O  0.60015678  0.39798276  0.62038194    -0.78100
O1541       O  0.64937592  0.35320404  0.62081084    -0.78300
C1542       C  0.64511153  0.33590031  0.64920188     1.02300
Cr1543     Cr  0.67362747  0.39795330  0.67929159     1.93700
Cr1544     Cr  0.63169686  0.46455543  0.66733978     1.93200
Cr1545     Cr  0.64235963  0.40756840  0.60971665     1.39100
O1546       O  0.64906304  0.42365184  0.65225496    -1.23300
O1547       O  0.68424989  0.09335183  0.59703787    -0.85600
O1548       O  0.63113913  0.05246807  0.59016027    -0.82600
C1549       C  0.63800868  0.01982624  0.59964157     0.97900
O1550       O  0.64675525  0.01364990  0.63023929    -0.82700
O1551       O  0.66957723  0.02874497  0.69631452    -0.85300
C1552       C  0.69702735  0.04009176  0.69495134     1.02400
O1553       O  0.70342099  0.07051996  0.68065692    -0.78100
O1554       O  0.69976689  0.13006289  0.63866831    -0.78300
C1555       C  0.70552580  0.11054114  0.61212687     1.02300
O1556       O  0.64910304  0.15694537  0.62149704    -0.85600
O1557       O  0.59949553  0.11131674  0.62283308    -0.82700
C1558       C  0.58171570  0.08602063  0.63309837     0.97900
O1559       O  0.59202997  0.05539590  0.64489131    -0.82700
O1560       O  0.61479771  0.07246770  0.70814135    -0.85300
C1561       C  0.63206223  0.08201270  0.73240081     1.02400
O1562       O  0.65761136  0.09623475  0.72538257    -0.78100
O1563       O  0.64850235  0.15597983  0.67825244    -0.78300
C1564       C  0.64590536  0.17393925  0.65018861     1.02300
Cr1565     Cr  0.64173451  0.10242474  0.61060394     1.93700
Cr1566     Cr  0.63216661  0.04532593  0.66877055     1.93200
Cr1567     Cr  0.67514236  0.11183745  0.67901187     1.39100
O1568       O  0.64963557  0.08614182  0.65283279    -1.23300
C1569       C  0.64136516  0.29452663  0.64922165    -0.05700
C1570       C  0.64118494  0.27492740  0.68087022    -0.33100
C1571       C  0.64133032  0.23583928  0.68173171     0.36100
C1572       C  0.64179335  0.21520880  0.65050703    -0.06100
C1573       C  0.64035580  0.23478822  0.61888388    -0.33000
C1574       C  0.64025578  0.27385503  0.61800070     0.36000
H1575       H  0.64188970  0.28991208  0.70525247     0.16400
O1576       O  0.64235889  0.21830785  0.71337430    -0.60500
H1577       H  0.64023659  0.21983377  0.59447322     0.16400
O1578       O  0.63943290  0.29139444  0.58632528    -0.60600
H1579       H  0.66062353  0.29120151  0.57791476     0.43400
H1580       H  0.62088838  0.21426909  0.71986579     0.43300
C1581       C  0.98670397  0.10562837  0.61605934    -0.05700
C1582       C  0.49601218  0.07221540  0.63189034    -0.33100
C1583       C  0.52674696  0.06553301  0.63871668     0.36100
C1584       C  0.54867947  0.09255098  0.62960992    -0.06100
C1585       C  0.53888742  0.12677958  0.61573419    -0.33000
C1586       C  0.50837030  0.13337256  0.60897756     0.36000
H1587       H  0.47961267  0.05045912  0.63742453     0.16400
O1588       O  0.53503741  0.03196201  0.65282352    -0.60500
H1589       H  0.55501413  0.14848015  0.60913763     0.16400
O1590       O  0.00010547  0.16673259  0.59439957    -0.60600
H1591       H  0.99377665  0.18248659  0.61417663     0.43400
H1592       H  0.53556128  0.03615958  0.67826864     0.43300
C1593       C  0.79894719  0.09215532  0.58639405    -0.05700
C1594       C  0.79014722  0.12422899  0.60465125    -0.33100
C1595       C  0.75984086  0.13141153  0.61167901     0.36100
C1596       C  0.73720698  0.10641628  0.60041751    -0.06100
C1597       C  0.74569196  0.07494005  0.58104779    -0.33000
C1598       C  0.77630251  0.06751108  0.57425987     0.36000
H1599       H  0.80689953  0.14381824  0.61434526     0.16400
O1600       O  0.75277069  0.16257717  0.63048547    -0.60500
H1601       H  0.72867925  0.05518563  0.57230875     0.16400
O1602       O  0.78370825  0.03629903  0.55570920    -0.60600
H1603       H  0.78194741  0.01530598  0.57237336     0.43400
H1604       H  0.75088074  0.18287194  0.61311483     0.43300
C1605       C  0.79898361  0.41718270  0.58642397    -0.05700
C1606       C  0.79036166  0.38712117  0.60773149    -0.33100
C1607       C  0.76013058  0.38029699  0.61554710     0.36100
C1608       C  0.73746264  0.40367245  0.60202269    -0.06100
C1609       C  0.74585791  0.43334871  0.58002122    -0.33000
C1610       C  0.77637337  0.44039017  0.57240315     0.36000
H1611       H  0.80720272  0.36886485  0.61906699     0.16400
O1612       O  0.75320663  0.35111100  0.63719468    -0.60500
H1613       H  0.72883176  0.45190760  0.56951316     0.16400
O1614       O  0.78370035  0.46963440  0.55099879    -0.60600
H1615       H  0.78406671  0.49188175  0.56623228     0.43400
H1616       H  0.74909401  0.32971326  0.62158178     0.43300
C1617       C  0.98733333  0.40349461  0.60835047    -0.05700
C1618       C  0.50965579  0.38399560  0.59027286    -0.33100
C1619       C  0.54028426  0.39020638  0.59688149     0.36100
C1620       C  0.54948105  0.41665482  0.62206226    -0.06100
C1621       C  0.52727160  0.43584680  0.64067848    -0.33000
C1622       C  0.49639212  0.42942279  0.63407933     0.36000
H1623       H  0.00347768  0.36426744  0.57015057     0.16400
O1624       O  0.56103346  0.37139358  0.57722036    -0.60500
H1625       H  0.53382374  0.45584550  0.66041021     0.16400
O1626       O  0.97538956  0.44889039  0.65274933    -0.60600
H1627       H  0.47327451  0.47309002  0.64052094     0.43400
H1628       H  0.56288973  0.34651417  0.58827986     0.43300
C1629       C  0.89186791  0.29328070  0.56072073    -0.05700
C1630       C  0.89111348  0.27323291  0.52932232    -0.33100
C1631       C  0.89144865  0.23403018  0.52904493     0.36100
C1632       C  0.89282542  0.21383539  0.56057403    -0.06100
C1633       C  0.89206096  0.23388528  0.59187071    -0.33000
C1634       C  0.89167192  0.27291272  0.59219567     0.36000
H1635       H  0.89106660  0.28795406  0.00474234     0.16400
O1636       O  0.89152248  0.21596857  0.99770228    -0.60500
H1637       H  0.89262717  0.21932889  0.61653212     0.16400
O1638       O  0.89148361  0.29073166  0.62367388    -0.60600
H1639       H  0.91297041  0.29160678  0.63126990     0.43400
H1640       H  0.86993948  0.21037258  0.99261985     0.43300
C1641       C  0.85895540  0.49102702  0.88746339    -0.05700
C1642       C  0.83510866  0.47898366  0.90851676    -0.33100
C1643       C  0.84054997  0.45468608  0.93638588     0.36100
C1644       C  0.87032139  0.44225190  0.94361025    -0.06100
C1645       C  0.89358138  0.45189100  0.92043164    -0.33000
C1646       C  0.88809956  0.47638213  0.89275559     0.36000
H1647       H  0.81257005  0.49004182  0.90454177     0.16400
O1648       O  0.81703366  0.44575867  0.95804445    -0.60500
H1649       H  0.91665862  0.44330847  0.92558298     0.16400
O1650       O  0.91190273  0.48828382  0.87277500    -0.60600
H1651       H  0.91127510  0.47233918  0.85178776     0.43400
H1652       H  0.80988134  0.42090657  0.95020769     0.43300
C1653       C  0.88212246  0.51973288  0.63642286    -0.05700
C1654       C  0.90567124  0.53777514  0.65435241    -0.33100
C1655       C  0.89929313  0.56123870  0.68263607     0.36100
C1656       C  0.86898908  0.56744236  0.69275032    -0.06100
C1657       C  0.84555639  0.55223399  0.67235444    -0.33000
C1658       C  0.85193489  0.52825620  0.64473352     0.36000
H1659       H  0.92900078  0.53176734  0.64795648     0.16400
O1660       O  0.92279351  0.57686054  0.70105831    -0.60500
H1661       H  0.82213768  0.55612162  0.67972694     0.16400
O1662       O  0.82842117  0.51114250  0.62754319    -0.60600
H1663       H  0.82344351  0.52800013  0.60792465     0.43400
H1664       H  0.93106993  0.55640766  0.71556336     0.43300
C1665       C  0.77141774  0.51708055  0.75011852    -0.05700
C1666       C  0.77642918  0.49736685  0.71939214    -0.33100
C1667       C  0.75199640  0.48393353  0.69969212     0.36100
C1668       C  0.72182003  0.48980584  0.71080533    -0.06100
C1669       C  0.71684451  0.50940347  0.74153759    -0.33000
C1670       C  0.74123537  0.52289416  0.76119370     0.36000
H1671       H  0.79926807  0.49346368  0.70995558     0.16400
O1672       O  0.75791460  0.46476921  0.66969401    -0.60500
H1673       H  0.69402273  0.51313326  0.75109116     0.16400
O1674       O  0.73535054  0.54094060  0.79181717    -0.60600
H1675       H  0.72809718  0.56605022  0.78502884     0.43400
H1676       H  0.75733969  0.48373758  0.65094439     0.43300
C1677       C  0.76954293  0.99047287  0.75400423    -0.05700
C1678       C  0.77601906  0.01360654  0.72565421    -0.33100
C1679       C  0.75268092  0.02826275  0.70513265     0.36100
C1680       C  0.72198133  0.02035809  0.71305072    -0.06100
C1681       C  0.71551269  0.99733315  0.74147768    -0.33000
C1682       C  0.73883755  0.98274427  0.76203667     0.36000
H1683       H  0.79929169  0.01938759  0.71858025     0.16400
O1684       O  0.76025285  0.05036324  0.67734667    -0.60500
H1685       H  0.69224489  0.99139881  0.74844427     0.16400
O1686       O  0.73125520  0.96063378  0.78981363    -0.60600
H1687       H  0.73039452  0.97776172  0.80996815     0.43400
H1688       H  0.76174399  0.03311804  0.65733853     0.43300
C1689       C  0.84845512  0.79341729  0.80969107    -0.05700
C1690       C  0.84055735  0.77451048  0.77901652    -0.33100
C1691       C  0.84034719  0.73555487  0.77774083     0.36100
C1692       C  0.84857915  0.71466581  0.80737558    -0.06100
C1693       C  0.85798461  0.73362666  0.83746091    -0.33000
C1694       C  0.85809603  0.77257261  0.83874908     0.36000
H1695       H  0.83310022  0.78987406  0.75631590     0.16400
O1696       O  0.83072015  0.71833782  0.74785683    -0.60500
H1697       H  0.86473102  0.71819440  0.86041512     0.16400
O1698       O  0.86696787  0.78986205  0.86888031    -0.60600
H1699       H  0.88910556  0.79372143  0.86651237     0.43400
H1700       H  0.80838871  0.71648701  0.74997371     0.43300
C1701       C  0.86549268  0.94143139  0.69697389    -0.05700
C1702       C  0.84251190  0.96058751  0.67927235    -0.33100
C1703       C  0.84950775  0.98552408  0.65260320     0.36100
C1704       C  0.87972016  0.99045879  0.64202408    -0.06100
C1705       C  0.90249041  0.96868635  0.65725649    -0.33000
C1706       C  0.89562198  0.94479622  0.68517527     0.36000
H1707       H  0.81933527  0.95903363  0.68829491     0.16400
O1708       O  0.82683476  0.00679276  0.63849059    -0.60500
H1709       H  0.92580240  0.97210174  0.64916750     0.16400
O1710       O  0.91854732  0.92596041  0.70163027    -0.60600
H1711       H  0.92854231  0.94458947  0.71690259     0.43400
H1712       H  0.81926386  0.99233537  0.61830820     0.43300
C1713       C  0.86155071  0.01577144  0.89108820    -0.05700
C1714       C  0.83819884  0.03481411  0.90782625    -0.33100
C1715       C  0.84472707  0.05852264  0.93587955     0.36100
C1716       C  0.87498465  0.06390544  0.94695635    -0.06100
C1717       C  0.89838789  0.04744834  0.92790328    -0.33000
C1718       C  0.89181574  0.02294985  0.90065245     0.36000
H1719       H  0.81482974  0.02944334  0.90064097     0.16400
O1720       O  0.82128574  0.07416891  0.95383202    -0.60500
H1721       H  0.92174222  0.05070210  0.93619001     0.16400
O1722       O  0.91510276  0.00503262  0.88426791    -0.60600
H1723       H  0.91922355  0.98257931  0.89855021     0.43400
H1724       H  0.81912460  0.09958863  0.94401975     0.43300
C1725       C  0.52100037  0.51803354  0.96136470    -0.08900
C1726       C  0.49112267  0.52556518  0.95027789    -0.33100
C1727       C  0.96606212  0.51173703  0.46843166     0.36100
C1728       C  0.97052550  0.48974028  0.99820355    -0.06100
C1729       C  0.00038401  0.48199393  0.00912120    -0.33000
C1730       C  0.52542524  0.49589659  0.99102233     0.36000
H1731       H  0.48711767  0.54263729  0.92747575     0.16400
O1732       O  0.93748325  0.51828470  0.45580140    -0.60500
H1733       H  0.00441702  0.46476361  0.03181468     0.16400
O1734       O  0.55402937  0.48824030  0.00294197    -0.60600
H1735       H  0.05702485  0.50479418  0.02324494     0.43400
H1736       H  0.93226484  0.54361911  0.46399052     0.43300
C1737       C  0.00494955  0.60733027  0.85268194    -0.05700
C1738       C  0.98296981  0.63093211  0.86653676    -0.33100
C1739       C  0.95234272  0.62551430  0.85918813     0.36100
C1740       C  0.94290226  0.59573469  0.83752781    -0.06100
C1741       C  0.96491189  0.57232473  0.82327607    -0.33000
C1742       C  0.99571399  0.57798626  0.83054353     0.36000
H1743       H  0.98942298  0.65337529  0.88389733     0.16400
O1744       O  0.93181154  0.64848927  0.87491058    -0.60500
H1745       H  0.95825569  0.54929362  0.80671845     0.16400
O1746       O  0.51633681  0.55335268  0.81743624    -0.60600
H1747       H  0.52131048  0.56297188  0.79398279     0.43400
H1748       H  0.93108352  0.67118529  0.86019333     0.43300
C1749       C  0.69299499  0.59453510  0.87554529    -0.05700
C1750       C  0.71471279  0.56901622  0.88741059    -0.33100
C1751       C  0.74545947  0.57412633  0.87972569     0.36100
C1752       C  0.75486431  0.60504918  0.85963015    -0.06100
C1753       C  0.73323015  0.63065831  0.84821255    -0.33000
C1754       C  0.70272030  0.62582886  0.85599740     0.36000
H1755       H  0.70785179  0.54473445  0.90222733     0.16400
O1756       O  0.76575804  0.54749991  0.89012953    -0.60500
H1757       H  0.73987282  0.65437848  0.83248931     0.16400
O1758       O  0.68251589  0.65112591  0.84274537    -0.60600
H1759       H  0.68224556  0.67183296  0.85975295     0.43400
H1760       H  0.77165395  0.55452383  0.91412440     0.43300
C1761       C  0.62176985  0.56969458  0.51888865    -0.05700
C1762       C  0.59927671  0.56117289  0.54336015    -0.33100
C1763       C  0.60545156  0.53689591  0.57100849     0.36100
C1764       C  0.63451519  0.52148225  0.57480029    -0.06100
C1765       C  0.65789685  0.53356558  0.55311056    -0.33000
C1766       C  0.65180935  0.55798181  0.52555035     0.36000
H1767       H  0.57617362  0.57022812  0.53921030     0.16400
O1768       O  0.58252751  0.52679965  0.59310277    -0.60500
H1769       H  0.68049767  0.52241812  0.55631813     0.16400
O1770       O  0.67490384  0.56757381  0.50353600    -0.60600
H1771       H  0.68052456  0.59344916  0.50998183     0.43400
H1772       H  0.57442021  0.50294581  0.58387710     0.43300
C1773       C  0.61007349  0.49216111  0.82338521    -0.05700
C1774       C  0.58627784  0.47691407  0.80377657    -0.33100
C1775       C  0.59222733  0.45332830  0.77547283     0.36100
C1776       C  0.62238185  0.44395611  0.76685366    -0.06100
C1777       C  0.64591936  0.45698025  0.78844654    -0.33000
C1778       C  0.63996895  0.48113834  0.81621392     0.36000
H1779       H  0.56316717  0.48503898  0.80908777     0.16400
O1780       O  0.56847253  0.44070889  0.75554196    -0.60500
H1781       H  0.66926630  0.45097622  0.78211457     0.16400
O1782       O  0.66375804  0.49581713  0.83480548    -0.60600
H1783       H  0.66697153  0.47827577  0.85437975     0.43400
H1784       H  0.56229178  0.46228820  0.74107481     0.43300
C1785       C  0.75425455  0.90133784  0.86488309    -0.05700
C1786       C  0.74565188  0.93408998  0.88220134    -0.33100
C1787       C  0.71503929  0.94154945  0.88884557     0.36100
C1788       C  0.69254938  0.91569980  0.87864690    -0.06100
C1789       C  0.70157206  0.88219624  0.86286062    -0.33000
C1790       C  0.73189023  0.87500744  0.85591391     0.36000
H1791       H  0.76253854  0.95482186  0.88914811     0.16400
O1792       O  0.70747665  0.97419029  0.90501363    -0.60500
H1793       H  0.68498604  0.86151307  0.85492642     0.16400
O1794       O  0.73925017  0.84247830  0.83938990    -0.60600
H1795       H  0.74418538  0.82465192  0.85826292     0.43400
H1796       H  0.70652945  0.99308431  0.88621112     0.43300
C1797       C  0.00488127  0.90259358  0.84857437    -0.05700
C1798       C  0.98429356  0.87363035  0.85468100    -0.33100
C1799       C  0.95346634  0.87824492  0.84800932     0.36100
C1800       C  0.94248070  0.91266662  0.83514538    -0.06100
C1801       C  0.96338615  0.94119197  0.82765603    -0.33000
C1802       C  0.99438447  0.93630029  0.83407458     0.36000
H1803       H  0.99203476  0.84747243  0.86558622     0.16400
O1804       O  0.93433573  0.84888681  0.85470156    -0.60500
H1805       H  0.95566279  0.96780163  0.81778365     0.16400
O1806       O  0.51382742  0.96565648  0.82866086    -0.60600
H1807       H  0.01934940  0.96422747  0.80377374     0.43400
H1808       H  0.93007693  0.85027232  0.87993112     0.43300
C1809       C  0.59984108  0.79494385  0.90341315    -0.05700
C1810       C  0.59772381  0.77564473  0.93514740    -0.33100
C1811       C  0.59789108  0.73651936  0.93623596     0.36100
C1812       C  0.60035671  0.71582059  0.90518638    -0.06100
C1813       C  0.60432610  0.73524588  0.87383033    -0.33000
C1814       C  0.60423956  0.77418336  0.87274177     0.36000
H1815       H  0.59475272  0.79081729  0.95917119     0.16400
O1816       O  0.59480013  0.71897980  0.96770664    -0.60500
H1817       H  0.60675516  0.72020656  0.84964709     0.16400
O1818       O  0.60742403  0.79148736  0.84117997    -0.60600
H1819       H  0.62955856  0.79488229  0.83819261     0.43400
H1820       H  0.57270549  0.71834434  0.97216926     0.43300
C1821       C  0.61137569  0.01791053  0.82195949    -0.05700
C1822       C  0.58839672  0.03934126  0.80672892    -0.33100
C1823       C  0.59508717  0.06377222  0.77916270     0.36100
C1824       C  0.62522928  0.06800877  0.76764035    -0.06100
C1825       C  0.64839980  0.04926478  0.78543844    -0.33000
C1826       C  0.64158831  0.02364943  0.81167969     0.36000
H1827       H  0.56508691  0.03534388  0.81461039     0.16400
O1828       O  0.57198947  0.08237528  0.76279726    -0.60500
H1829       H  0.67163407  0.05167666  0.77677296     0.16400
O1830       O  0.66458937  0.00346494  0.82651511    -0.60600
H1831       H  0.66740317  0.98168945  0.81106719     0.43400
H1832       H  0.56220273  0.06371845  0.74737082     0.43300
C1833       C  0.61907125  0.94308985  0.51741163    -0.05700
C1834       C  0.64890294  0.95608000  0.52309405    -0.33100
C1835       C  0.65597960  0.97912656  0.55137483     0.36100
C1836       C  0.63333918  0.98889729  0.57501509    -0.06100
C1837       C  0.60430671  0.97321364  0.57140921    -0.33000
C1838       C  0.59709312  0.95022561  0.54304372     0.36000
H1839       H  0.66633405  0.95085930  0.50403854     0.16400
O1840       O  0.68460744  0.99379140  0.55449600    -0.60500
H1841       H  0.58661015  0.98080488  0.58942453     0.16400
O1842       O  0.56771911  0.93846556  0.53880328    -0.60600
H1843       H  0.56716348  0.91288528  0.54856861     0.43400
H1844       H  0.68433188  0.01710001  0.54061923     0.43300
C1845       C  0.97157280  0.01738649  0.00275912    -0.05700
C1846       C  0.00159584  0.03023744  0.00760171    -0.33100
C1847       C  0.02545355  0.01697738  0.98735144     0.36100
C1848       C  0.51976319  0.99024887  0.96149176    -0.06100
C1849       C  0.48972957  0.97741559  0.95659053    -0.33000
C1850       C  0.96590605  0.99043544  0.47705921     0.36000
H1851       H  0.00672964  0.05114449  0.02705480     0.16400
O1852       O  0.05418733  0.03028852  0.99326002    -0.60500
H1853       H  0.48459409  0.95666720  0.43698471     0.16400
O1854       O  0.93711432  0.97751446  0.47080989    -0.60600
H1855       H  0.43553408  0.95387676  0.48406028     0.43400
H1856       H  0.06206239  0.01547524  0.01307850     0.43300
loop_ 
_geom_bond_atom_site_label_1 
_geom_bond_atom_site_label_2 
_geom_bond_distance 
_geom_bond_site_symmetry_2 
_ccdc_geom_bond_type 
O1          Cr19   1.973       .  S
O1            C9   1.261       .  A
O2          Cr19   2.009       .  S
O2            C3   1.263       .  A
C3            O4   1.257       .  A
C3          C429   1.474   1_565  S
O4          Cr20   1.986       .  S
O5          Cr20   2.049       .  S
O5            C6   1.277       .  A
C6            O7   1.252       .  A
C6          C456   1.486       .  S
O7          Cr21   1.942       .  S
O8          Cr21   2.015       .  S
O8            C9   1.271       .  A
C9         C1333   1.474       .  S
O10         Cr19   2.015       .  S
O10          C18   1.269       .  A
O11         Cr19   1.947       .  S
O11          C12   1.260       .  A
C12          O13   1.278       .  A
C12         C396   1.485       .  S
O13         Cr20   2.039       .  S
O14         Cr20   1.959       .  S
O14          C15   1.252       .  A
C15          O16   1.269       .  A
C15         C905   1.490       .  S
O16         Cr21   2.037       .  S
O17         Cr21   1.982       .  S
O17          C18   1.263       .  A
C18         C417   1.489       .  S
Cr19         O22   1.759       .  S
Cr20         O22   1.759       .  S
Cr21         O22   1.763       .  S
O23         Cr41   2.010       .  S
O23          C31   1.270       .  A
O24         Cr41   1.938       .  S
O24          C25   1.252       .  A
C25          O26   1.278       .  A
C25         C333   1.480       .  S
O26         Cr42   2.052       .  S
O27         Cr42   1.989       .  S
O27          C28   1.259       .  A
C28          O29   1.265       .  A
C28         C381   1.481       .  S
O29         Cr43   2.018       .  S
O30         Cr43   1.970       .  S
O30          C31   1.260       .  A
C31        C1273   1.478       .  S
O32         Cr41   1.978       .  S
O32          C40   1.261       .  A
O33         Cr41   2.028       .  S
O33          C34   1.267       .  A
C34          O35   1.252       .  A
C34         C833   1.484       .  S
O35         Cr42   1.961       .  S
O36         Cr42   2.037       .  S
O36          C37   1.277       .  A
C37          O38   1.257       .  A
C37         C357   1.482       .  S
O38         Cr43   1.942       .  S
O39         Cr43   2.021       .  S
O39          C40   1.271       .  A
C40         C420   1.489       .  S
Cr41         O44   1.766       .  S
Cr42         O44   1.761       .  S
Cr43         O44   1.758       .  S
O45         Cr63   2.008       .  S
O45          C53   1.268       .  A
O46         Cr63   1.942       .  S
O46          C47   1.253       .  A
C47          O48   1.278       .  A
C47         C285   1.483       .  S
O48         Cr64   2.050       .  S
O49         Cr64   1.983       .  S
O49          C50   1.257       .  A
C50          O51   1.263       .  A
C50         C321   1.471   1_565  S
O51         Cr65   2.007       .  S
O52         Cr65   1.980       .  S
O52          C53   1.261       .  A
C53         C393   1.477       .  S
O54         Cr63   1.971       .  S
O54          C62   1.261       .  A
O55         Cr63   2.024       .  S
O55          C56   1.266       .  A
C56          O57   1.251       .  A
C56         C309   1.477       .  S
O57         Cr64   1.966       .  S
O58         Cr64   2.033       .  S
O58          C59   1.276       .  A
C59          O60   1.259       .  A
C59         C408   1.486       .  S
O60         Cr65   1.952       .  S
O61         Cr65   2.018       .  S
O61          C62   1.270       .  A
C62         C297   1.481       .  S
Cr63         O66   1.762       .  S
Cr64         O66   1.759       .  S
Cr65         O66   1.760       .  S
O67         Cr85   1.970       .  S
O67          C75   1.258       .  A
O68         Cr85   2.010       .  S
O68          C69   1.263       .  A
C69          O70   1.256       .  A
C69         C249   1.471       .  S
O70         Cr86   1.980       .  S
O71         Cr86   2.055       .  S
O71          C72   1.279       .  A
C72          O73   1.250       .  A
C72         C273   1.478       .  S
O73         Cr87   1.931       .  S
O74         Cr87   2.012       .  S
O74          C75   1.269       .  A
C75         C360   1.477       .  S
O76         Cr85   2.019       .  S
O76          C84   1.271       .  A
O77         Cr85   1.942       .  S
O77          C78   1.257       .  A
C78          O79   1.278       .  A
C78         C348   1.482       .  S
O79         Cr86   2.039       .  S
O80         Cr86   1.969       .  S
O80          C81   1.253       .  A
C81          O82   1.268       .  A
C81         C264   1.487       .  S
O82         Cr87   2.032       .  S
O83         Cr87   1.970       .  S
O83          C84   1.261       .  A
C84         C300   1.481       .  S
Cr85         O88   1.761       .  S
Cr86         O88   1.761       .  S
Cr87         O88   1.761       .  S
O89        Cr107   1.972       .  S
O89          C97   1.261       .  A
O90        Cr107   2.014       .  S
O90          C91   1.264       .  A
C91          O92   1.258       .  A
C91         C261   1.478       .  S
O92        Cr108   1.988       .  S
O93        Cr108   2.048       .  S
O93          C94   1.277       .  A
C94          O95   1.252       .  A
C94         C800   1.479   1_554  S
O95        Cr109   1.939       .  S
O96        Cr109   2.012       .  S
O96          C97   1.271       .  A
C97         C225   1.482       .  S
O98        Cr107   2.021       .  S
O98         C106   1.270       .  A
O99        Cr107   1.946       .  S
O99         C100   1.260       .  A
C100        O101   1.275       .  A
C100        C213   1.479       .  S
O101       Cr108   2.031       .  S
O102       Cr572   1.958       .  S
O102        C103   1.250       .  A
C103        O104   1.268       .  A
C103        C252   1.486       .  S
O104       Cr573   2.034       .  S
O105       Cr109   1.988       .  S
O105        C106   1.264       .  A
C106        C237   1.497       .  S
Cr107       O110   1.759       .  S
Cr108       O566   1.958       .  S
Cr108       O110   1.763       .  S
Cr109       O568   2.034   1_554  S
Cr109       O110   1.766       .  S
O111       Cr129   2.010       .  S
O111        C119   1.269       .  A
O112       Cr129   1.945       .  S
O112        C113   1.253       .  A
C113        O114   1.277       .  A
C113        C917   1.487       .  S
O114       Cr130   2.049       .  S
O115       Cr130   1.987       .  S
O115        C116   1.257       .  A
C116        O117   1.263       .  A
C116        C312   1.473   1_545  S
O117       Cr131   2.007       .  S
O118       Cr131   1.977       .  S
O118        C119   1.261       .  A
C119        C189   1.475       .  S
O120       Cr129   1.984       .  S
O120        C128   1.263       .  A
O121       Cr593   2.027       .  S
O121        C122   1.267       .  A
C122        O123   1.252       .  A
C122        C324   1.479       .  S
O123       Cr594   1.964       .  S
O124       Cr130   2.038       .  S
O124        C125   1.277       .  A
C125        O126   1.261       .  A
C125        C201   1.485       .  S
O126       Cr131   1.949       .  S
O127       Cr131   2.023       .  S
O127        C128   1.271       .  A
C128        C240   1.495       .  S
Cr129       O585   2.027   1_554  S
Cr129       O132   1.762       .  S
Cr130       O587   1.964       .  S
Cr130       O132   1.763       .  S
Cr131       O132   1.759       .  S
O133       Cr151   2.011       .  S
O133        C141   1.270       .  A
O134       Cr151   1.935       .  S
O134        C135   1.250       .  A
C135        O136   1.279       .  A
C135        C276   1.477       .  S
O136       Cr152   2.053       .  S
O137       Cr152   1.975       .  S
O137        C138   1.253       .  A
C138        O139   1.264       .  A
C138        C372   1.469       .  S
O139       Cr153   2.013       .  S
O140       Cr153   1.969       .  S
O140        C141   1.260       .  A
C141        C216   1.478       .  S
O142       Cr151   1.984       .  S
O142        C150   1.266       .  A
O143       Cr151   2.044       .  S
O143        C144   1.270       .  A
C144        O145   1.250       .  A
C144        C384   1.492       .  S
O145       Cr152   1.961       .  S
O146       Cr152   2.042       .  S
O146        C147   1.278       .  A
C147        O148   1.257       .  A
C147        C228   1.480       .  S
O148       Cr153   1.939       .  S
O149       Cr153   2.022       .  S
O149        C150   1.271       .  A
C150        C177   1.493       .  S
Cr151       O154   1.763       .  S
Cr152       O154   1.761       .  S
Cr153       O154   1.761       .  S
O155       Cr173   1.980       .  S
O155        C163   1.261       .  A
O156       Cr173   2.011       .  S
O156        C157   1.264       .  A
C157        O158   1.258       .  A
C157        C444   1.474   1_545  S
O158       Cr174   1.983       .  S
O159       Cr174   2.049       .  S
O159        C160   1.278       .  A
C160        O161   1.253       .  A
C160        C288   1.483       .  S
O161       Cr175   1.944       .  S
O162       Cr175   2.008       .  S
O162        C163   1.268       .  A
C163        C204   1.481       .  S
O164       Cr173   2.026       .  S
O164        C172   1.272       .  A
O165       Cr173   1.954       .  S
O165        C166   1.261       .  A
C166        O167   1.274       .  A
C166        C192   1.484       .  S
O167       Cr174   2.027       .  S
O168       Cr174   1.965       .  S
O168        C169   1.250       .  A
C169        O170   1.266       .  A
C169        C432   1.478       .  S
O170       Cr175   2.027       .  S
O171       Cr175   1.978       .  S
O171        C172   1.262       .  A
C172        C180   1.493       .  S
Cr173       O176   1.761       .  S
Cr174       O176   1.763       .  S
Cr175       O176   1.765       .  S
C177        C178   1.406       .  A
C177        C182   1.415       .  A
C178        C179   1.403       .  A
C178        H183   1.083       .  S
C179        C180   1.414       .  A
C179        O184   1.371       .  S
C180        C181   1.406       .  A
C181        C182   1.402       .  A
C181        H185   1.083       .  S
C182        O186   1.372       .  S
O184        H188   0.992       .  S
O186        H187   0.992       .  S
C189       C1118   1.407       .  A
C189       C1122   1.405       .  A
C190        C191   1.403   1_655  A
C190       C1117   1.407       .  A
C190        H195   1.084       .  S
C191        C192   1.412       .  A
C191        O196   1.371       .  S
C192        C193   1.408       .  A
C193        C194   1.393       .  A
C193        H197   1.083       .  S
C194       C1117   1.405   1_455  A
C194       O1126   1.372       .  S
O196        H200   0.992       .  S
O198       C1122   1.372       .  S
O198        H199   0.992       .  S
C201        C202   1.407       .  A
C201        C206   1.410       .  A
C202        C203   1.392       .  A
C202        H207   1.083       .  S
C203        C204   1.407       .  A
C203        O208   1.372       .  S
C204        C205   1.408       .  A
C205        C206   1.405       .  A
C205        H209   1.083       .  S
C206        O210   1.372       .  S
O208        H212   0.992       .  S
O210        H211   0.992       .  S
C213        C214   1.406       .  A
C213        C218   1.409       .  A
C214        C215   1.391       .  A
C214        H219   1.083       .  S
C215        C216   1.407       .  A
C215        O220   1.372       .  S
C216        C217   1.409       .  A
C217        C218   1.402       .  A
C217        H221   1.084       .  S
C218        O222   1.372       .  S
O220        H224   0.992       .  S
O222        H223   0.992       .  S
C225       C1154   1.401       .  A
C225       C1158   1.415       .  A
C226        C227   1.392       .  A
C226       C1153   1.401   1_455  A
C226       H1159   1.084       .  S
C227        C228   1.415       .  A
C227        O232   1.373       .  S
C228        C229   1.402       .  A
C229        C230   1.404   1_455  A
C229        H233   1.083       .  S
C230       C1153   1.415       .  A
C230       O1162   1.372       .  S
H231       C1154   1.084       .  S
O232        H236   0.992       .  S
O234       C1158   1.372       .  S
O234       H1163   0.992       .  S
H235       O1162   0.992       .  S
C237        C238   1.408       .  A
C237        C242   1.414       .  A
C238        C239   1.407       .  A
C238        H707   1.083       .  S
C239        C240   1.414       .  A
C239        O708   1.371   1_554  S
C240        C241   1.406       .  A
C241        C242   1.401       .  A
C241        H245   1.083       .  S
C242        O246   1.372       .  S
H243        C702   1.083       .  S
O244        C703   1.371       .  S
O244        H248   0.992       .  S
O246        H247   0.992       .  S
C249        C250   1.399       .  A
C249        C254   1.407       .  A
C250        C251   1.402       .  A
C250        H255   1.084       .  S
C251        C252   1.417       .  A
C251        O256   1.372       .  S
C252        C253   1.406       .  A
C253        C254   1.401       .  A
C253        H257   1.084       .  S
C254        O258   1.372       .  S
O256        H260   0.992       .  S
O258        H259   0.991       .  S
C261        C262   1.402       .  A
C261        C266   1.408       .  A
C262        C263   1.409       .  A
C262        H267   1.083       .  S
C263        C264   1.415       .  A
C263        O268   1.372       .  S
C264        C265   1.405       .  A
C265        C266   1.400       .  A
C265        H269   1.084       .  S
C266        O270   1.372       .  S
O268        H272   0.992       .  S
O270        H271   0.992       .  S
C273        C274   1.399       .  A
C273        C278   1.418       .  A
C274        C275   1.400       .  A
C274        H279   1.084       .  S
C275        C276   1.419       .  A
C275        O280   1.373       .  S
C276        C277   1.397       .  A
C277        C278   1.398       .  A
C277        H281   1.084       .  S
C278        O282   1.373       .  S
O280        H284   0.992       .  S
O282        H283   0.992       .  S
C285        C286   1.400   1_565  A
C285        C290   1.418       .  A
C286        C287   1.400       .  A
C286        H291   1.084       .  S
C287        C288   1.418       .  A
C287        O292   1.372       .  S
C288        C289   1.400   1_545  A
C289        C290   1.399       .  A
C289        H293   1.083       .  S
C290        O294   1.372       .  S
O292        H296   0.992       .  S
O294        H295   0.992       .  S
C297        C298   1.405       .  A
C297        C302   1.410       .  A
C298        C299   1.399       .  A
C298        H303   1.083       .  S
C299        C300   1.411       .  A
C299        O304   1.372       .  S
C300        C301   1.405       .  A
C301        C302   1.399       .  A
C301        H305   1.084       .  S
C302        O306   1.371       .  S
O304        H308   0.992       .  S
O306        H307   0.991       .  S
C309        C310   1.402       .  A
C309        C314   1.413       .  A
C310        C311   1.396       .  A
C310        H315   1.084       .  S
C311        C312   1.407       .  A
C311        O316   1.372   1_565  S
C312        C313   1.402       .  A
C313        C314   1.407       .  A
C313        H317   1.083       .  S
C314        O318   1.372       .  S
O316        H320   0.991   1_545  S
O318        H319   0.992       .  S
C321        C322   1.401       .  A
C321        C326   1.407       .  A
C322        C323   1.404       .  A
C322        H327   1.084       .  S
C323        C324   1.413       .  A
C323        O328   1.371       .  S
C324        C325   1.404       .  A
C325        C326   1.399       .  A
C325        H329   1.084       .  S
C326        O330   1.373       .  S
O328        H332   0.992       .  S
O330        H331   0.992   1_545  S
C333        C334   1.412   1_455  A
C333        C338   1.404       .  A
C334       C1727   1.400       .  A
C334        H339   1.084       .  S
C335       C1726   1.400       .  A
C335        C800   1.404       .  A
C335        O340   1.372       .  S
C336        C558   1.479       .  S
C336        C337   1.411       .  A
C336        C799   1.404       .  A
C337       C1266   1.399       .  A
C337        H341   1.084       .  S
C338       C1265   1.399       .  A
C338        O342   1.371       .  S
O340        H344   0.992       .  S
O342       H1271   0.991       .  S
H343       O1270   0.991       .  S
C345        C959   1.478       .  S
C345        C346   1.400       .  A
C345        C350   1.413       .  A
C346        C347   1.393       .  A
C346        H351   1.084       .  S
C347        C348   1.417       .  A
C347        O352   1.373       .  S
C348        C349   1.403       .  A
C349        C350   1.401       .  A
C349        H353   1.083       .  S
C350       O1282   1.371       .  S
O352        H356   0.992       .  S
O354       C1278   1.371   1_455  S
O354        H355   0.992       .  S
C357        C358   1.404       .  A
C357        C362   1.417       .  A
C358        C359   1.402       .  A
C358        H363   1.083       .  S
C359        C360   1.414       .  A
C359        O364   1.372       .  S
C360        C361   1.398       .  A
C361        C362   1.392       .  A
C361        H365   1.084       .  S
C362        O366   1.372       .  S
O364        H368   0.992       .  S
O366        H367   0.992       .  S
C369        C498   1.484   1_554  S
C369        C370   1.405       .  A
C369        C374   1.416       .  A
C370        C371   1.401       .  A
C370        H375   1.083       .  S
C371        C372   1.407       .  A
C371        O376   1.373       .  S
C372        C373   1.398       .  A
C373        C374   1.401       .  A
C373        H377   1.084       .  S
C374        O378   1.372       .  S
O376        H380   0.992       .  S
O378        H379   0.992       .  S
C381        C382   1.401       .  A
C381        C386   1.409       .  A
C382        C383   1.408       .  A
C382        H387   1.084       .  S
C383        C384   1.417       .  A
C383        O388   1.372       .  S
C384        C385   1.406       .  A
C385        C386   1.405       .  A
C385        H389   1.084       .  S
C386        O390   1.372       .  S
O388        H392   0.992       .  S
O390        H391   0.991       .  S
C393        C394   1.407       .  A
C393        C398   1.406       .  A
C394        C395   1.405       .  A
C394        H399   1.084       .  S
C395        C396   1.410       .  A
C395        O400   1.371       .  S
C396        C397   1.409       .  A
C397        C398   1.392       .  A
C397        H401   1.083       .  S
C398        O402   1.372       .  S
O400        H404   0.992       .  S
O402        H403   0.992       .  S
C405        C937   1.474       .  S
C405        C406   1.398       .  A
C405        C410   1.411       .  A
C406        C407   1.395       .  A
C406        H411   1.084       .  S
C407        C408   1.417       .  A
C407        O412   1.372       .  S
C408        C409   1.405       .  A
C409        C410   1.402       .  A
C409        H413   1.083       .  S
C410       O1342   1.372       .  S
O412        H416   0.992       .  S
O414       C1338   1.372   1_455  S
O414       H1343   0.992       .  S
H415       O1342   0.992       .  S
C417        C418   1.407       .  A
C417        C422   1.413       .  A
C418        C419   1.405       .  A
C418        H423   1.083       .  S
C419        C420   1.414       .  A
C419        O424   1.372       .  S
C420        C421   1.405       .  A
C421        C422   1.398       .  A
C421        H425   1.083       .  S
C422        O426   1.371       .  S
O424        H428   0.992       .  S
O426        H427   0.992       .  S
C429        C430   1.402       .  A
C429        C434   1.408       .  A
C430        C431   1.407       .  A
C430        H435   1.084       .  S
C431        C432   1.413       .  A
C431        O436   1.372       .  S
C432        C433   1.403       .  A
C433        C434   1.398       .  A
C433        H437   1.084       .  S
C434        O438   1.372       .  S
O436        H440   0.992       .  S
O438        H439   0.992   1_545  S
C441        C479   1.490   1_554  S
C441        C442   1.411       .  A
C441        C446   1.413       .  A
C442        C443   1.402       .  A
C442        H447   1.084       .  S
C443        C444   1.402       .  A
C443        O448   1.372       .  S
C444        C445   1.404       .  A
C445        C446   1.404       .  A
C445        H449   1.084       .  S
C446        O450   1.371       .  S
O448        H452   0.992   1_565  S
O450        H451   0.992       .  S
C453        C577   1.487       .  S
C453        C454   1.413       .  A
C453        C922   1.406   1_545  A
C454        C455   1.400       .  A
C454        H459   1.084       .  S
C455       C1384   1.405   1_545  A
C455        O460   1.372       .  S
C456        C457   1.414   1_455  A
C456       C1383   1.405   1_565  A
C457       C1850   1.401       .  A
C457        H925   1.084       .  S
C458        C917   1.406   1_566  A
C458       C1849   1.401       .  A
C458        O462   1.371       .  S
O460        H464   0.992       .  S
H461        C921   1.084       .  S
O462       H1391   0.991       .  S
H463       O1390   0.991       .  S
O465       Cr483   1.973       .  S
O465        C473   1.261       .  A
O466       Cr483   2.009       .  S
O466        C467   1.263       .  A
C467        O468   1.257       .  A
C467        C893   1.474   1_565  S
O468       Cr484   1.986       .  S
O469       Cr484   2.049       .  S
O469        C470   1.277       .  A
C470        O471   1.252       .  A
C470        C920   1.486       .  S
O471       Cr485   1.942       .  S
O472       Cr485   2.015       .  S
O472        C473   1.271       .  A
C473       C1797   1.474       .  S
O474       Cr483   2.015       .  S
O474        C482   1.269       .  A
O475       Cr483   1.947       .  S
O475        C476   1.260       .  A
C476        O477   1.278       .  A
C476        C860   1.485       .  S
O477       Cr484   2.039       .  S
O478       Cr484   1.959       .  S
O478        C479   1.252       .  A
C479        O480   1.269       .  A
O480       Cr485   2.037       .  S
O481       Cr485   1.982       .  S
O481        C482   1.263       .  A
C482        C881   1.489       .  S
Cr483       O486   1.759       .  S
Cr484       O486   1.759       .  S
Cr485       O486   1.763       .  S
O487       Cr505   2.010       .  S
O487        C495   1.270       .  A
O488       Cr505   1.938       .  S
O488        C489   1.252       .  A
C489        O490   1.278       .  A
C489        C797   1.480       .  S
O490       Cr506   2.052       .  S
O491       Cr506   1.989       .  S
O491        C492   1.259       .  A
C492        O493   1.265       .  A
C492        C845   1.481       .  S
O493       Cr507   2.018       .  S
O494       Cr507   1.970       .  S
O494        C495   1.260       .  A
C495       C1737   1.478       .  S
O496       Cr505   1.978       .  S
O496        C504   1.261       .  A
O497       Cr505   2.028       .  S
O497        C498   1.267       .  A
C498        O499   1.252       .  A
O499       Cr506   1.961       .  S
O500       Cr506   2.037       .  S
O500        C501   1.277       .  A
C501        O502   1.257       .  A
C501        C821   1.482       .  S
O502       Cr507   1.942       .  S
O503       Cr507   2.021       .  S
O503        C504   1.271       .  A
C504        C884   1.489       .  S
Cr505       O508   1.766       .  S
Cr506       O508   1.761       .  S
Cr507       O508   1.758       .  S
O509       Cr527   2.008       .  S
O509        C517   1.268       .  A
O510       Cr527   1.942       .  S
O510        C511   1.253       .  A
C511        O512   1.278       .  A
C511        C749   1.483       .  S
O512       Cr528   2.050       .  S
O513       Cr528   1.983       .  S
O513        C514   1.257       .  A
C514        O515   1.263       .  A
C514        C785   1.471   1_565  S
O515       Cr529   2.007       .  S
O516       Cr529   1.980       .  S
O516        C517   1.261       .  A
C517        C857   1.477       .  S
O518       Cr527   1.971       .  S
O518        C526   1.261       .  A
O519       Cr527   2.024       .  S
O519        C520   1.266       .  A
C520        O521   1.251       .  A
C520        C773   1.477       .  S
O521       Cr528   1.966       .  S
O522       Cr528   2.033       .  S
O522        C523   1.276       .  A
C523        O524   1.259       .  A
C523        C872   1.486       .  S
O524       Cr529   1.952       .  S
O525       Cr529   2.018       .  S
O525        C526   1.270       .  A
C526        C761   1.481       .  S
Cr527       O530   1.762       .  S
Cr528       O530   1.759       .  S
Cr529       O530   1.760       .  S
O531       Cr549   1.970       .  S
O531        C539   1.258       .  A
O532       Cr549   2.010       .  S
O532        C533   1.263       .  A
C533        O534   1.256       .  A
C533        C713   1.471       .  S
O534       Cr550   1.980       .  S
O535       Cr550   2.055       .  S
O535        C536   1.279       .  A
C536        O537   1.250       .  A
C536        C737   1.478       .  S
O537       Cr551   1.931       .  S
O538       Cr551   2.012       .  S
O538        C539   1.269       .  A
C539        C824   1.477       .  S
O540       Cr549   2.019       .  S
O540        C548   1.271       .  A
O541       Cr549   1.942       .  S
O541        C542   1.257       .  A
C542        O543   1.278       .  A
C542        C812   1.482       .  S
O543       Cr550   2.039       .  S
O544       Cr550   1.969       .  S
O544        C545   1.253       .  A
C545        O546   1.268       .  A
C545        C728   1.487       .  S
O546       Cr551   2.032       .  S
O547       Cr551   1.970       .  S
O547        C548   1.261       .  A
C548        C764   1.481       .  S
Cr549       O552   1.761       .  S
Cr550       O552   1.761       .  S
Cr551       O552   1.761       .  S
O553       Cr571   1.972       .  S
O553        C561   1.261       .  A
O554       Cr571   2.014       .  S
O554        C555   1.264       .  A
C555        O556   1.258       .  A
C555        C725   1.478       .  S
O556       Cr572   1.988       .  S
O557       Cr572   2.048       .  S
O557        C558   1.277       .  A
C558        O559   1.252       .  A
O559       Cr573   1.939       .  S
O560       Cr573   2.012       .  S
O560        C561   1.271       .  A
C561        C689   1.482       .  S
O562       Cr571   2.021       .  S
O562        C570   1.270       .  A
O563       Cr571   1.946       .  S
O563        C564   1.260       .  A
C564        O565   1.275       .  A
C564        C677   1.479       .  S
O565       Cr572   2.031       .  S
O566        C567   1.250   1_554  A
C567        O568   1.268       .  A
C567        C716   1.486       .  S
O569       Cr573   1.988       .  S
O569        C570   1.264       .  A
C570        C701   1.497       .  S
Cr571       O574   1.759       .  S
Cr572       O574   1.763       .  S
Cr573       O574   1.766       .  S
O575       Cr593   2.010       .  S
O575        C583   1.269       .  A
O576       Cr593   1.945       .  S
O576        C577   1.253       .  A
C577        O578   1.277       .  A
O578       Cr594   2.049       .  S
O579       Cr594   1.987       .  S
O579        C580   1.257       .  A
C580        O581   1.263       .  A
C580        C776   1.473   1_545  S
O581       Cr595   2.007       .  S
O582       Cr595   1.977       .  S
O582        C583   1.261       .  A
C583        C653   1.475       .  S
O584       Cr593   1.984       .  S
O584        C592   1.263       .  A
O585        C586   1.267       .  A
C586        O587   1.252   1_556  A
C586        C788   1.479       .  S
O588       Cr594   2.038       .  S
O588        C589   1.277       .  A
C589        O590   1.261       .  A
C589        C665   1.485       .  S
O590       Cr595   1.949       .  S
O591       Cr595   2.023       .  S
O591        C592   1.271       .  A
C592        C704   1.495       .  S
Cr593       O596   1.762       .  S
Cr594       O596   1.763       .  S
Cr595       O596   1.759       .  S
O597       Cr615   2.011       .  S
O597        C605   1.270       .  A
O598       Cr615   1.935       .  S
O598        C599   1.250       .  A
C599        O600   1.279       .  A
C599        C740   1.477       .  S
O600       Cr616   2.053       .  S
O601       Cr616   1.975       .  S
O601        C602   1.253       .  A
C602        O603   1.264       .  A
C602        C836   1.469       .  S
O603       Cr617   2.013       .  S
O604       Cr617   1.969       .  S
O604        C605   1.260       .  A
C605        C680   1.478       .  S
O606       Cr615   1.984       .  S
O606        C614   1.266       .  A
O607       Cr615   2.044       .  S
O607        C608   1.270       .  A
C608        O609   1.250       .  A
C608        C848   1.492       .  S
O609       Cr616   1.961       .  S
O610       Cr616   2.042       .  S
O610        C611   1.278       .  A
C611        O612   1.257       .  A
C611        C692   1.480       .  S
O612       Cr617   1.939       .  S
O613       Cr617   2.022       .  S
O613        C614   1.271       .  A
C614        C641   1.493       .  S
Cr615       O618   1.763       .  S
Cr616       O618   1.761       .  S
Cr617       O618   1.761       .  S
O619       Cr637   1.980       .  S
O619        C627   1.261       .  A
O620       Cr637   2.011       .  S
O620        C621   1.264       .  A
C621        O622   1.258       .  A
C621        C908   1.474   1_545  S
O622       Cr638   1.983       .  S
O623       Cr638   2.049       .  S
O623        C624   1.278       .  A
C624        O625   1.253       .  A
C624        C752   1.483       .  S
O625       Cr639   1.944       .  S
O626       Cr639   2.008       .  S
O626        C627   1.268       .  A
C627        C668   1.481       .  S
O628       Cr637   2.026       .  S
O628        C636   1.272       .  A
O629       Cr637   1.954       .  S
O629        C630   1.261       .  A
C630        O631   1.274       .  A
C630        C656   1.484       .  S
O631       Cr638   2.027       .  S
O632       Cr638   1.965       .  S
O632        C633   1.250       .  A
C633        O634   1.266       .  A
C633        C896   1.478       .  S
O634       Cr639   2.027       .  S
O635       Cr639   1.978       .  S
O635        C636   1.262       .  A
C636        C644   1.493       .  S
Cr637       O640   1.761       .  S
Cr638       O640   1.763       .  S
Cr639       O640   1.765       .  S
C641        C642   1.406       .  A
C641        C646   1.415       .  A
C642        C643   1.403       .  A
C642        H647   1.083       .  S
C643        C644   1.414       .  A
C643        O648   1.371       .  S
C644        C645   1.406       .  A
C645        C646   1.402       .  A
C645        H649   1.083       .  S
C646        O650   1.372       .  S
O648        H652   0.992       .  S
O650        H651   0.992       .  S
C653       C1582   1.407       .  A
C653       C1586   1.405       .  A
C654       C1581   1.407       .  A
C654        C655   1.403   1_655  A
C654        H659   1.084       .  S
C655        C656   1.412       .  A
C655        O660   1.371       .  S
C656        C657   1.408       .  A
C657        C658   1.393       .  A
C657        H661   1.083       .  S
C658       C1581   1.405   1_455  A
C658       O1590   1.372       .  S
O660        H664   0.992       .  S
O662       C1586   1.372       .  S
O662        H663   0.992       .  S
C665        C666   1.407       .  A
C665        C670   1.410       .  A
C666        C667   1.392       .  A
C666        H671   1.083       .  S
C667        C668   1.407       .  A
C667        O672   1.372       .  S
C668        C669   1.408       .  A
C669        C670   1.405       .  A
C669        H673   1.083       .  S
C670        O674   1.372       .  S
O672        H676   0.992       .  S
O674        H675   0.992       .  S
C677        C678   1.406       .  A
C677        C682   1.409       .  A
C678        C679   1.391       .  A
C678        H683   1.083       .  S
C679        C680   1.407       .  A
C679        O684   1.372       .  S
C680        C681   1.409       .  A
C681        C682   1.402       .  A
C681        H685   1.084       .  S
C682        O686   1.372       .  S
O684        H688   0.992       .  S
O686        H687   0.992       .  S
C689       C1618   1.401       .  A
C689       C1622   1.415       .  A
C690       C1617   1.401   1_455  A
C690        C691   1.392       .  A
C690       H1623   1.084       .  S
C691        C692   1.415       .  A
C691        O696   1.373       .  S
C692        C693   1.402       .  A
C693        C694   1.404   1_455  A
C693        H697   1.083       .  S
C694       C1617   1.415       .  A
C694       O1626   1.372       .  S
H695       C1618   1.084       .  S
O696        H700   0.992       .  S
O698       C1622   1.372       .  S
O698       H1627   0.992       .  S
H699       O1626   0.992       .  S
C701        C702   1.408       .  A
C701        C706   1.414       .  A
C702        C703   1.407       .  A
C703        C704   1.414       .  A
C704        C705   1.406       .  A
C705        C706   1.401       .  A
C705        H709   1.083       .  S
C706        O710   1.372       .  S
O708        H712   0.992       .  S
O710        H711   0.992       .  S
C713        C714   1.399       .  A
C713        C718   1.407       .  A
C714        C715   1.402       .  A
C714        H719   1.084       .  S
C715        C716   1.417       .  A
C715        O720   1.372       .  S
C716        C717   1.406       .  A
C717        C718   1.401       .  A
C717        H721   1.084       .  S
C718        O722   1.372       .  S
O720        H724   0.992       .  S
O722        H723   0.991       .  S
C725        C726   1.402       .  A
C725        C730   1.408       .  A
C726        C727   1.409       .  A
C726        H731   1.083       .  S
C727        C728   1.415       .  A
C727        O732   1.372       .  S
C728        C729   1.405       .  A
C729        C730   1.400       .  A
C729        H733   1.084       .  S
C730        O734   1.372       .  S
O732        H736   0.992       .  S
O734        H735   0.992       .  S
C737        C738   1.399       .  A
C737        C742   1.418       .  A
C738        C739   1.400       .  A
C738        H743   1.084       .  S
C739        C740   1.419       .  A
C739        O744   1.373       .  S
C740        C741   1.397       .  A
C741        C742   1.398       .  A
C741        H745   1.084       .  S
C742        O746   1.373       .  S
O744        H748   0.992       .  S
O746        H747   0.992       .  S
C749        C750   1.400   1_565  A
C749        C754   1.418       .  A
C750        C751   1.400       .  A
C750        H755   1.084       .  S
C751        C752   1.418       .  A
C751        O756   1.372       .  S
C752        C753   1.400   1_545  A
C753        C754   1.399       .  A
C753        H757   1.083       .  S
C754        O758   1.372       .  S
O756        H760   0.992       .  S
O758        H759   0.992       .  S
C761        C762   1.405       .  A
C761        C766   1.410       .  A
C762        C763   1.399       .  A
C762        H767   1.083       .  S
C763        C764   1.411       .  A
C763        O768   1.372       .  S
C764        C765   1.405       .  A
C765        C766   1.399       .  A
C765        H769   1.084       .  S
C766        O770   1.371       .  S
O768        H772   0.992       .  S
O770        H771   0.991       .  S
C773        C774   1.402       .  A
C773        C778   1.413       .  A
C774        C775   1.396       .  A
C774        H779   1.084       .  S
C775        C776   1.407       .  A
C775        O780   1.372   1_565  S
C776        C777   1.402       .  A
C777        C778   1.407       .  A
C777        H781   1.083       .  S
C778        O782   1.372       .  S
O780        H784   0.991   1_545  S
O782        H783   0.992       .  S
C785        C786   1.401       .  A
C785        C790   1.407       .  A
C786        C787   1.404       .  A
C786        H791   1.084       .  S
C787        C788   1.413       .  A
C787        O792   1.371       .  S
C788        C789   1.404       .  A
C789        C790   1.399       .  A
C789        H793   1.084       .  S
C790        O794   1.373       .  S
O792        H796   0.992       .  S
O794        H795   0.992   1_545  S
C797        C798   1.412   1_455  A
C797        C802   1.404       .  A
C798       C1263   1.400       .  A
C798        H803   1.084       .  S
C799       C1262   1.400       .  A
C799        O804   1.372       .  S
C800        C801   1.411   1_556  A
C801       C1730   1.399   1_554  A
C801        H805   1.084       .  S
C802       C1729   1.399   1_556  A
C802        O806   1.371   1_556  S
O804        H808   0.992       .  S
O806       H1735   0.991       .  S
H807       O1734   0.991       .  S
C809       C1423   1.478       .  S
C809        C810   1.400       .  A
C809        C814   1.413       .  A
C810        C811   1.393       .  A
C810        H815   1.084       .  S
C811        C812   1.417       .  A
C811        O816   1.373       .  S
C812        C813   1.403       .  A
C813        C814   1.401       .  A
C813        H817   1.083       .  S
C814       O1746   1.371       .  S
O816        H820   0.992       .  S
O818       C1742   1.371   1_455  S
O818        H819   0.992       .  S
C821        C822   1.404       .  A
C821        C826   1.417       .  A
C822        C823   1.402       .  A
C822        H827   1.083       .  S
C823        C824   1.414       .  A
C823        O828   1.372       .  S
C824        C825   1.398       .  A
C825        C826   1.392       .  A
C825        H829   1.084       .  S
C826        O830   1.372       .  S
O828        H832   0.991       .  S
O830        H831   0.992       .  S
C833        C834   1.405       .  A
C833        C838   1.416       .  A
C834        C835   1.401       .  A
C834        H839   1.083       .  S
C835        C836   1.407       .  A
C835        O840   1.373       .  S
C836        C837   1.398       .  A
C837        C838   1.401       .  A
C837        H841   1.084       .  S
C838        O842   1.372       .  S
O840        H844   0.992       .  S
O842        H843   0.992       .  S
C845        C846   1.401       .  A
C845        C850   1.409       .  A
C846        C847   1.408       .  A
C846        H851   1.084       .  S
C847        C848   1.417       .  A
C847        O852   1.372       .  S
C848        C849   1.406       .  A
C849        C850   1.405       .  A
C849        H853   1.084       .  S
C850        O854   1.372       .  S
O852        H856   0.992       .  S
O854        H855   0.991       .  S
C857        C858   1.407       .  A
C857        C862   1.406       .  A
C858        C859   1.405       .  A
C858        H863   1.084       .  S
C859        C860   1.410       .  A
C859        O864   1.371       .  S
C860        C861   1.409       .  A
C861        C862   1.392       .  A
C861        H865   1.083       .  S
C862        O866   1.372       .  S
O864        H868   0.992       .  S
O866        H867   0.992       .  S
C869       C1401   1.474       .  S
C869        C870   1.398       .  A
C869        C874   1.411       .  A
C870        C871   1.395       .  A
C870        H875   1.084       .  S
C871        C872   1.417       .  A
C871        O876   1.372       .  S
C872        C873   1.405       .  A
C873        C874   1.402       .  A
C873        H877   1.083       .  S
C874       O1806   1.372       .  S
O876        H880   0.992       .  S
O878       C1802   1.372   1_455  S
O878       H1807   0.992       .  S
H879       O1806   0.992       .  S
C881        C882   1.407       .  A
C881        C886   1.413       .  A
C882        C883   1.405       .  A
C882        H887   1.083       .  S
C883        C884   1.414       .  A
C883        O888   1.372       .  S
C884        C885   1.405       .  A
C885        C886   1.398       .  A
C885        H889   1.083       .  S
C886        O890   1.371       .  S
O888        H892   0.992       .  S
O890        H891   0.992       .  S
C893        C894   1.402       .  A
C893        C898   1.408       .  A
C894        C895   1.407       .  A
C894        H899   1.084       .  S
C895        C896   1.413       .  A
C895        O900   1.372       .  S
C896        C897   1.403       .  A
C897        C898   1.398       .  A
C897        H901   1.084       .  S
C898        O902   1.372       .  S
O900        H904   0.992       .  S
O902        H903   0.992   1_545  S
C905        C906   1.411       .  A
C905        C910   1.413       .  A
C906        C907   1.402       .  A
C906        H911   1.084       .  S
C907        C908   1.402       .  A
C907        O912   1.372       .  S
C908        C909   1.404       .  A
C909        C910   1.404       .  A
C909        H913   1.084       .  S
C910        O914   1.371       .  S
O912        H916   0.992   1_565  S
O914        H915   0.992       .  S
C917        C918   1.413       .  A
C918        C919   1.400   1_554  A
C918        H923   1.084       .  S
C919       C1848   1.405   1_545  A
C919        O924   1.372       .  S
C920       C1847   1.405   1_565  A
C920        C921   1.414   1_455  A
C921       C1386   1.401       .  A
C922       C1385   1.401       .  A
C922        O926   1.371       .  S
O924        H928   0.992   1_556  S
O926       H1855   0.991       .  S
H927       O1854   0.991       .  S
O929       Cr947   1.973       .  S
O929        C937   1.261       .  A
O930       Cr947   2.009       .  S
O930        C931   1.263       .  A
C931        O932   1.257       .  A
C931       C1357   1.474   1_565  S
O932       Cr948   1.986       .  S
O933       Cr948   2.049       .  S
O933        C934   1.277       .  A
C934        O935   1.252       .  A
C934       C1384   1.486       .  S
O935       Cr949   1.942       .  S
O936       Cr949   2.015       .  S
O936        C937   1.271       .  A
O938       Cr947   2.015       .  S
O938        C946   1.269       .  A
O939       Cr947   1.947       .  S
O939        C940   1.260       .  A
C940        O941   1.278       .  A
C940       C1324   1.485       .  S
O941       Cr948   2.039       .  S
O942       Cr948   1.959       .  S
O942        C943   1.252       .  A
C943        O944   1.269       .  A
C943       C1833   1.490       .  S
O944       Cr949   2.037       .  S
O945       Cr949   1.982       .  S
O945        C946   1.263       .  A
C946       C1345   1.489       .  S
Cr947       O950   1.759       .  S
Cr948       O950   1.759       .  S
Cr949       O950   1.763       .  S
O951       Cr969   2.010       .  S
O951        C959   1.270       .  A
O952       Cr969   1.938       .  S
O952        C953   1.252       .  A
C953        O954   1.278       .  A
C953       C1261   1.480       .  S
O954       Cr970   2.052       .  S
O955       Cr970   1.989       .  S
O955        C956   1.259       .  A
C956        O957   1.265       .  A
C956       C1309   1.481       .  S
O957       Cr971   2.018       .  S
O958       Cr971   1.970       .  S
O958        C959   1.260       .  A
O960       Cr969   1.978       .  S
O960        C968   1.261       .  A
O961       Cr969   2.028       .  S
O961        C962   1.267       .  A
C962        O963   1.252       .  A
C962       C1761   1.484       .  S
O963       Cr970   1.961       .  S
O964       Cr970   2.037       .  S
O964        C965   1.277       .  A
C965        O966   1.257       .  A
C965       C1285   1.482       .  S
O966       Cr971   1.942       .  S
O967       Cr971   2.021       .  S
O967        C968   1.271       .  A
C968       C1348   1.489       .  S
Cr969       O972   1.766       .  S
Cr970       O972   1.761       .  S
Cr971       O972   1.758       .  S
O973       Cr991   2.008       .  S
O973        C981   1.268       .  A
O974       Cr991   1.942       .  S
O974        C975   1.253       .  A
C975        O976   1.278       .  A
C975       C1213   1.483       .  S
O976       Cr992   2.050       .  S
O977       Cr992   1.983       .  S
O977        C978   1.257       .  A
C978        O979   1.263       .  A
C978       C1249   1.471   1_565  S
O979       Cr993   2.007       .  S
O980       Cr993   1.980       .  S
O980        C981   1.261       .  A
C981       C1321   1.477       .  S
O982       Cr991   1.971       .  S
O982        C990   1.261       .  A
O983       Cr991   2.024       .  S
O983        C984   1.266       .  A
C984        O985   1.251       .  A
C984       C1237   1.477       .  S
O985       Cr992   1.966       .  S
O986       Cr992   2.033       .  S
O986        C987   1.276       .  A
C987        O988   1.259       .  A
C987       C1336   1.486       .  S
O988       Cr993   1.952       .  S
O989       Cr993   2.018       .  S
O989        C990   1.270       .  A
C990       C1225   1.481       .  S
Cr991       O994   1.762       .  S
Cr992       O994   1.759       .  S
Cr993       O994   1.760       .  S
O995      Cr1013   1.970       .  S
O995       C1003   1.258       .  A
O996      Cr1013   2.010       .  S
O996        C997   1.263       .  A
C997        O998   1.256       .  A
C997       C1177   1.471       .  S
O998      Cr1014   1.980       .  S
O999      Cr1014   2.055       .  S
O999       C1000   1.279       .  A
C1000      O1001   1.250       .  A
C1000      C1201   1.478       .  S
O1001     Cr1015   1.931       .  S
O1002     Cr1015   2.012       .  S
O1002      C1003   1.269       .  A
C1003      C1288   1.477       .  S
O1004     Cr1013   2.019       .  S
O1004      C1012   1.271       .  A
O1005     Cr1013   1.942       .  S
O1005      C1006   1.257       .  A
C1006      O1007   1.278       .  A
C1006      C1276   1.482       .  S
O1007     Cr1014   2.039       .  S
O1008     Cr1014   1.969       .  S
O1008      C1009   1.253       .  A
C1009      O1010   1.268       .  A
C1009      C1192   1.487       .  S
O1010     Cr1015   2.032       .  S
O1011     Cr1015   1.970       .  S
O1011      C1012   1.261       .  A
C1012      C1228   1.481       .  S
Cr1013     O1016   1.761       .  S
Cr1014     O1016   1.761       .  S
Cr1015     O1016   1.761       .  S
O1017     Cr1035   1.972       .  S
O1017      C1025   1.261       .  A
O1018     Cr1035   2.014       .  S
O1018      C1019   1.264       .  A
C1019      O1020   1.258       .  A
C1019      C1189   1.478       .  S
O1020     Cr1036   1.988       .  S
O1021     Cr1036   2.048       .  S
O1021      C1022   1.277       .  A
C1022      O1023   1.252       .  A
C1022      C1728   1.479   1_554  S
O1023     Cr1037   1.939       .  S
O1024     Cr1037   2.012       .  S
O1024      C1025   1.271       .  A
C1025      C1153   1.482       .  S
O1026     Cr1035   2.021       .  S
O1026      C1034   1.270       .  A
O1027     Cr1035   1.946       .  S
O1027      C1028   1.260       .  A
C1028      O1029   1.275       .  A
C1028      C1141   1.479       .  S
O1029     Cr1036   2.031       .  S
O1030     Cr1500   1.958       .  S
O1030      C1031   1.250       .  A
C1031      O1032   1.268       .  A
C1031      C1180   1.486       .  S
O1032     Cr1501   2.034       .  S
O1033     Cr1037   1.988       .  S
O1033      C1034   1.264       .  A
C1034      C1165   1.497       .  S
Cr1035     O1038   1.759       .  S
Cr1036     O1494   1.958       .  S
Cr1036     O1038   1.763       .  S
Cr1037     O1496   2.034   1_554  S
Cr1037     O1038   1.766       .  S
O1039     Cr1057   2.010       .  S
O1039      C1047   1.269       .  A
O1040     Cr1057   1.945       .  S
O1040      C1041   1.253       .  A
C1041      O1042   1.277       .  A
C1041      C1845   1.487       .  S
O1042     Cr1058   2.049       .  S
O1043     Cr1058   1.987       .  S
O1043      C1044   1.257       .  A
C1044      O1045   1.263       .  A
C1044      C1240   1.473   1_545  S
O1045     Cr1059   2.007       .  S
O1046     Cr1059   1.977       .  S
O1046      C1047   1.261       .  A
C1047      C1117   1.475       .  S
O1048     Cr1057   1.984       .  S
O1048      C1056   1.263       .  A
O1049     Cr1521   2.027       .  S
O1049      C1050   1.267       .  A
C1050      O1051   1.252       .  A
C1050      C1252   1.479       .  S
O1051     Cr1522   1.964       .  S
O1052     Cr1058   2.038       .  S
O1052      C1053   1.277       .  A
C1053      O1054   1.261       .  A
C1053      C1129   1.485       .  S
O1054     Cr1059   1.949       .  S
O1055     Cr1059   2.023       .  S
O1055      C1056   1.271       .  A
C1056      C1168   1.495       .  S
Cr1057     O1513   2.027   1_554  S
Cr1057     O1060   1.762       .  S
Cr1058     O1515   1.964       .  S
Cr1058     O1060   1.763       .  S
Cr1059     O1060   1.759       .  S
O1061     Cr1079   2.011       .  S
O1061      C1069   1.270       .  A
O1062     Cr1079   1.935       .  S
O1062      C1063   1.250       .  A
C1063      O1064   1.279       .  A
C1063      C1204   1.477       .  S
O1064     Cr1080   2.053       .  S
O1065     Cr1080   1.975       .  S
O1065      C1066   1.253       .  A
C1066      O1067   1.264       .  A
C1066      C1300   1.469       .  S
O1067     Cr1081   2.013       .  S
O1068     Cr1081   1.969       .  S
O1068      C1069   1.260       .  A
C1069      C1144   1.478       .  S
O1070     Cr1079   1.984       .  S
O1070      C1078   1.266       .  A
O1071     Cr1079   2.044       .  S
O1071      C1072   1.270       .  A
C1072      O1073   1.250       .  A
C1072      C1312   1.492       .  S
O1073     Cr1080   1.961       .  S
O1074     Cr1080   2.042       .  S
O1074      C1075   1.278       .  A
C1075      O1076   1.257       .  A
C1075      C1156   1.480       .  S
O1076     Cr1081   1.939       .  S
O1077     Cr1081   2.022       .  S
O1077      C1078   1.271       .  A
C1078      C1105   1.493       .  S
Cr1079     O1082   1.763       .  S
Cr1080     O1082   1.761       .  S
Cr1081     O1082   1.761       .  S
O1083     Cr1101   1.980       .  S
O1083      C1091   1.261       .  A
O1084     Cr1101   2.011       .  S
O1084      C1085   1.264       .  A
C1085      O1086   1.258       .  A
C1085      C1372   1.474   1_545  S
O1086     Cr1102   1.983       .  S
O1087     Cr1102   2.049       .  S
O1087      C1088   1.278       .  A
C1088      O1089   1.253       .  A
C1088      C1216   1.483       .  S
O1089     Cr1103   1.944       .  S
O1090     Cr1103   2.008       .  S
O1090      C1091   1.268       .  A
C1091      C1132   1.481       .  S
O1092     Cr1101   2.026       .  S
O1092      C1100   1.272       .  A
O1093     Cr1101   1.954       .  S
O1093      C1094   1.261       .  A
C1094      O1095   1.274       .  A
C1094      C1120   1.484       .  S
O1095     Cr1102   2.027       .  S
O1096     Cr1102   1.965       .  S
O1096      C1097   1.250       .  A
C1097      O1098   1.266       .  A
C1097      C1360   1.478       .  S
O1098     Cr1103   2.027       .  S
O1099     Cr1103   1.978       .  S
O1099      C1100   1.262       .  A
C1100      C1108   1.493       .  S
Cr1101     O1104   1.761       .  S
Cr1102     O1104   1.763       .  S
Cr1103     O1104   1.765       .  S
C1105      C1106   1.406       .  A
C1105      C1110   1.415       .  A
C1106      C1107   1.403       .  A
C1106      H1111   1.083       .  S
C1107      C1108   1.414       .  A
C1107      O1112   1.371       .  S
C1108      C1109   1.406       .  A
C1109      C1110   1.402       .  A
C1109      H1113   1.083       .  S
C1110      O1114   1.372       .  S
O1112      H1116   0.992       .  S
O1114      H1115   0.992       .  S
C1118      C1119   1.403       .  A
C1118      H1123   1.084       .  S
C1119      C1120   1.412       .  A
C1119      O1124   1.371       .  S
C1120      C1121   1.408       .  A
C1121      C1122   1.393       .  A
C1121      H1125   1.083       .  S
O1124      H1128   0.992       .  S
O1126      H1127   0.992   1_455  S
C1129      C1130   1.407       .  A
C1129      C1134   1.410       .  A
C1130      C1131   1.392       .  A
C1130      H1135   1.083       .  S
C1131      C1132   1.407       .  A
C1131      O1136   1.372       .  S
C1132      C1133   1.408       .  A
C1133      C1134   1.405       .  A
C1133      H1137   1.083       .  S
C1134      O1138   1.372       .  S
O1136      H1140   0.992       .  S
O1138      H1139   0.992       .  S
C1141      C1142   1.406       .  A
C1141      C1146   1.409       .  A
C1142      C1143   1.391       .  A
C1142      H1147   1.083       .  S
C1143      C1144   1.407       .  A
C1143      O1148   1.372       .  S
C1144      C1145   1.409       .  A
C1145      C1146   1.402       .  A
C1145      H1149   1.084       .  S
C1146      O1150   1.372       .  S
O1148      H1152   0.992       .  S
O1150      H1151   0.992       .  S
C1154      C1155   1.392       .  A
C1155      C1156   1.415       .  A
C1155      O1160   1.373       .  S
C1156      C1157   1.402       .  A
C1157      C1158   1.404       .  A
C1157      H1161   1.083       .  S
O1160      H1164   0.992       .  S
C1165      C1166   1.408       .  A
C1165      C1170   1.414       .  A
C1166      C1167   1.407       .  A
C1166      H1635   1.083       .  S
C1167      C1168   1.414       .  A
C1167      O1636   1.371   1_554  S
C1168      C1169   1.406       .  A
C1169      C1170   1.401       .  A
C1169      H1173   1.083       .  S
C1170      O1174   1.372       .  S
H1171      C1630   1.083       .  S
O1172      C1631   1.371       .  S
O1172      H1176   0.992       .  S
O1174      H1175   0.992       .  S
C1177      C1178   1.399       .  A
C1177      C1182   1.407       .  A
C1178      C1179   1.402       .  A
C1178      H1183   1.084       .  S
C1179      C1180   1.417       .  A
C1179      O1184   1.372       .  S
C1180      C1181   1.406       .  A
C1181      C1182   1.401       .  A
C1181      H1185   1.084       .  S
C1182      O1186   1.372       .  S
O1184      H1188   0.992       .  S
O1186      H1187   0.991       .  S
C1189      C1190   1.402       .  A
C1189      C1194   1.408       .  A
C1190      C1191   1.409       .  A
C1190      H1195   1.083       .  S
C1191      C1192   1.415       .  A
C1191      O1196   1.372       .  S
C1192      C1193   1.405       .  A
C1193      C1194   1.400       .  A
C1193      H1197   1.084       .  S
C1194      O1198   1.372       .  S
O1196      H1200   0.992       .  S
O1198      H1199   0.992       .  S
C1201      C1202   1.399       .  A
C1201      C1206   1.418       .  A
C1202      C1203   1.400       .  A
C1202      H1207   1.084       .  S
C1203      C1204   1.419       .  A
C1203      O1208   1.373       .  S
C1204      C1205   1.397       .  A
C1205      C1206   1.398       .  A
C1205      H1209   1.084       .  S
C1206      O1210   1.373       .  S
O1208      H1212   0.992       .  S
O1210      H1211   0.992       .  S
C1213      C1214   1.400   1_565  A
C1213      C1218   1.418       .  A
C1214      C1215   1.400       .  A
C1214      H1219   1.084       .  S
C1215      C1216   1.418       .  A
C1215      O1220   1.372       .  S
C1216      C1217   1.400   1_545  A
C1217      C1218   1.399       .  A
C1217      H1221   1.083       .  S
C1218      O1222   1.372       .  S
O1220      H1224   0.992       .  S
O1222      H1223   0.992       .  S
C1225      C1226   1.405       .  A
C1225      C1230   1.410       .  A
C1226      C1227   1.399       .  A
C1226      H1231   1.083       .  S
C1227      C1228   1.411       .  A
C1227      O1232   1.372       .  S
C1228      C1229   1.405       .  A
C1229      C1230   1.399       .  A
C1229      H1233   1.084       .  S
C1230      O1234   1.371       .  S
O1232      H1236   0.992       .  S
O1234      H1235   0.991       .  S
C1237      C1238   1.402       .  A
C1237      C1242   1.413       .  A
C1238      C1239   1.396       .  A
C1238      H1243   1.084       .  S
C1239      C1240   1.407       .  A
C1239      O1244   1.372   1_565  S
C1240      C1241   1.402       .  A
C1241      C1242   1.407       .  A
C1241      H1245   1.083       .  S
C1242      O1246   1.372       .  S
O1244      H1248   0.991   1_545  S
O1246      H1247   0.992       .  S
C1249      C1250   1.401       .  A
C1249      C1254   1.407       .  A
C1250      C1251   1.404       .  A
C1250      H1255   1.084       .  S
C1251      C1252   1.413       .  A
C1251      O1256   1.371       .  S
C1252      C1253   1.404       .  A
C1253      C1254   1.399       .  A
C1253      H1257   1.084       .  S
C1254      O1258   1.373       .  S
O1256      H1260   0.992       .  S
O1258      H1259   0.992   1_545  S
C1261      C1262   1.412       .  A
C1261      C1266   1.404       .  A
C1262      H1267   1.084       .  S
C1263      C1728   1.404       .  A
C1263      O1268   1.372       .  S
C1264      C1486   1.479       .  S
C1264      C1727   1.404       .  A
C1264      C1265   1.411   1_655  A
C1265      H1269   1.084       .  S
C1266      O1270   1.371       .  S
O1268      H1272   0.992       .  S
C1273      C1274   1.400   1_455  A
C1273      C1278   1.413   1_455  A
C1274      C1275   1.393       .  A
C1274      H1279   1.084       .  S
C1275      C1276   1.417       .  A
C1275      O1280   1.373       .  S
C1276      C1277   1.403       .  A
C1277      C1278   1.401       .  A
C1277      H1281   1.083       .  S
O1280      H1284   0.992       .  S
O1282      H1283   0.992       .  S
C1285      C1286   1.404       .  A
C1285      C1290   1.417       .  A
C1286      C1287   1.402       .  A
C1286      H1291   1.083       .  S
C1287      C1288   1.414       .  A
C1287      O1292   1.372       .  S
C1288      C1289   1.398       .  A
C1289      C1290   1.392       .  A
C1289      H1293   1.084       .  S
C1290      O1294   1.372       .  S
O1292      H1296   0.992       .  S
O1294      H1295   0.992       .  S
C1297      C1426   1.484   1_554  S
C1297      C1298   1.405       .  A
C1297      C1302   1.416       .  A
C1298      C1299   1.401       .  A
C1298      H1303   1.083       .  S
C1299      C1300   1.407       .  A
C1299      O1304   1.373       .  S
C1300      C1301   1.398       .  A
C1301      C1302   1.401       .  A
C1301      H1305   1.084       .  S
C1302      O1306   1.372       .  S
O1304      H1308   0.992       .  S
O1306      H1307   0.992       .  S
C1309      C1310   1.401       .  A
C1309      C1314   1.409       .  A
C1310      C1311   1.408       .  A
C1310      H1315   1.084       .  S
C1311      C1312   1.417       .  A
C1311      O1316   1.372       .  S
C1312      C1313   1.406       .  A
C1313      C1314   1.405       .  A
C1313      H1317   1.084       .  S
C1314      O1318   1.372       .  S
O1316      H1320   0.992       .  S
O1318      H1319   0.991       .  S
C1321      C1322   1.407       .  A
C1321      C1326   1.406       .  A
C1322      C1323   1.405       .  A
C1322      H1327   1.084       .  S
C1323      C1324   1.410       .  A
C1323      O1328   1.371       .  S
C1324      C1325   1.409       .  A
C1325      C1326   1.392       .  A
C1325      H1329   1.083       .  S
C1326      O1330   1.372       .  S
O1328      H1332   0.992       .  S
O1330      H1331   0.992       .  S
C1333      C1334   1.398   1_455  A
C1333      C1338   1.411   1_455  A
C1334      C1335   1.395       .  A
C1334      H1339   1.084       .  S
C1335      C1336   1.417       .  A
C1335      O1340   1.372       .  S
C1336      C1337   1.405       .  A
C1337      C1338   1.402       .  A
C1337      H1341   1.083       .  S
O1340      H1344   0.992       .  S
C1345      C1346   1.407       .  A
C1345      C1350   1.413       .  A
C1346      C1347   1.405       .  A
C1346      H1351   1.083       .  S
C1347      C1348   1.414       .  A
C1347      O1352   1.372       .  S
C1348      C1349   1.405       .  A
C1349      C1350   1.398       .  A
C1349      H1353   1.083       .  S
C1350      O1354   1.371       .  S
O1352      H1356   0.992       .  S
O1354      H1355   0.992       .  S
C1357      C1358   1.402       .  A
C1357      C1362   1.408       .  A
C1358      C1359   1.407       .  A
C1358      H1363   1.084       .  S
C1359      C1360   1.413       .  A
C1359      O1364   1.372       .  S
C1360      C1361   1.403       .  A
C1361      C1362   1.398       .  A
C1361      H1365   1.084       .  S
C1362      O1366   1.372       .  S
O1364      H1368   0.992       .  S
O1366      H1367   0.992   1_545  S
C1369      C1407   1.490   1_554  S
C1369      C1370   1.411       .  A
C1369      C1374   1.413       .  A
C1370      C1371   1.402       .  A
C1370      H1375   1.084       .  S
C1371      C1372   1.402       .  A
C1371      O1376   1.372       .  S
C1372      C1373   1.404       .  A
C1373      C1374   1.404       .  A
C1373      H1377   1.084       .  S
C1374      O1378   1.371       .  S
O1376      H1380   0.992   1_565  S
O1378      H1379   0.992       .  S
C1381      C1505   1.487       .  S
C1381      C1382   1.413   1_655  A
C1381      C1850   1.406   1_545  A
C1382      C1383   1.400       .  A
C1382      H1387   1.084       .  S
C1383      O1388   1.372       .  S
C1384      C1385   1.414       .  A
C1385      H1853   1.084       .  S
C1386      C1845   1.406   1_566  A
C1386      O1390   1.371       .  S
O1388      H1392   0.992       .  S
H1389      C1849   1.084       .  S
O1393     Cr1411   1.973       .  S
O1393      C1401   1.261       .  A
O1394     Cr1411   2.009       .  S
O1394      C1395   1.263       .  A
C1395      O1396   1.257       .  A
C1395      C1821   1.474   1_565  S
O1396     Cr1412   1.986       .  S
O1397     Cr1412   2.049       .  S
O1397      C1398   1.277       .  A
C1398      O1399   1.252       .  A
C1398      C1848   1.486       .  S
O1399     Cr1413   1.942       .  S
O1400     Cr1413   2.015       .  S
O1400      C1401   1.271       .  A
O1402     Cr1411   2.015       .  S
O1402      C1410   1.269       .  A
O1403     Cr1411   1.947       .  S
O1403      C1404   1.260       .  A
C1404      O1405   1.278       .  A
C1404      C1788   1.485       .  S
O1405     Cr1412   2.039       .  S
O1406     Cr1412   1.959       .  S
O1406      C1407   1.252       .  A
C1407      O1408   1.269       .  A
O1408     Cr1413   2.037       .  S
O1409     Cr1413   1.982       .  S
O1409      C1410   1.263       .  A
C1410      C1809   1.489       .  S
Cr1411     O1414   1.759       .  S
Cr1412     O1414   1.759       .  S
Cr1413     O1414   1.763       .  S
O1415     Cr1433   2.010       .  S
O1415      C1423   1.270       .  A
O1416     Cr1433   1.938       .  S
O1416      C1417   1.252       .  A
C1417      O1418   1.278       .  A
C1417      C1725   1.480       .  S
O1418     Cr1434   2.052       .  S
O1419     Cr1434   1.989       .  S
O1419      C1420   1.259       .  A
C1420      O1421   1.265       .  A
C1420      C1773   1.481       .  S
O1421     Cr1435   2.018       .  S
O1422     Cr1435   1.970       .  S
O1422      C1423   1.260       .  A
O1424     Cr1433   1.978       .  S
O1424      C1432   1.261       .  A
O1425     Cr1433   2.028       .  S
O1425      C1426   1.267       .  A
C1426      O1427   1.252       .  A
O1427     Cr1434   1.961       .  S
O1428     Cr1434   2.037       .  S
O1428      C1429   1.277       .  A
C1429      O1430   1.257       .  A
C1429      C1749   1.482       .  S
O1430     Cr1435   1.942       .  S
O1431     Cr1435   2.021       .  S
O1431      C1432   1.271       .  A
C1432      C1812   1.489       .  S
Cr1433     O1436   1.766       .  S
Cr1434     O1436   1.761       .  S
Cr1435     O1436   1.758       .  S
O1437     Cr1455   2.008       .  S
O1437      C1445   1.268       .  A
O1438     Cr1455   1.942       .  S
O1438      C1439   1.253       .  A
C1439      O1440   1.278       .  A
C1439      C1677   1.483       .  S
O1440     Cr1456   2.050       .  S
O1441     Cr1456   1.983       .  S
O1441      C1442   1.257       .  A
C1442      O1443   1.263       .  A
C1442      C1713   1.471   1_565  S
O1443     Cr1457   2.007       .  S
O1444     Cr1457   1.980       .  S
O1444      C1445   1.261       .  A
C1445      C1785   1.477       .  S
O1446     Cr1455   1.971       .  S
O1446      C1454   1.261       .  A
O1447     Cr1455   2.024       .  S
O1447      C1448   1.266       .  A
C1448      O1449   1.251       .  A
C1448      C1701   1.477       .  S
O1449     Cr1456   1.966       .  S
O1450     Cr1456   2.033       .  S
O1450      C1451   1.276       .  A
C1451      O1452   1.259       .  A
C1451      C1800   1.486       .  S
O1452     Cr1457   1.952       .  S
O1453     Cr1457   2.018       .  S
O1453      C1454   1.270       .  A
C1454      C1689   1.481       .  S
Cr1455     O1458   1.762       .  S
Cr1456     O1458   1.759       .  S
Cr1457     O1458   1.760       .  S
O1459     Cr1477   1.970       .  S
O1459      C1467   1.258       .  A
O1460     Cr1477   2.010       .  S
O1460      C1461   1.263       .  A
C1461      O1462   1.256       .  A
C1461      C1641   1.471       .  S
O1462     Cr1478   1.980       .  S
O1463     Cr1478   2.055       .  S
O1463      C1464   1.279       .  A
C1464      O1465   1.250       .  A
C1464      C1665   1.478       .  S
O1465     Cr1479   1.931       .  S
O1466     Cr1479   2.012       .  S
O1466      C1467   1.269       .  A
C1467      C1752   1.477       .  S
O1468     Cr1477   2.019       .  S
O1468      C1476   1.271       .  A
O1469     Cr1477   1.942       .  S
O1469      C1470   1.257       .  A
C1470      O1471   1.278       .  A
C1470      C1740   1.482       .  S
O1471     Cr1478   2.039       .  S
O1472     Cr1478   1.969       .  S
O1472      C1473   1.253       .  A
C1473      O1474   1.268       .  A
C1473      C1656   1.487       .  S
O1474     Cr1479   2.032       .  S
O1475     Cr1479   1.970       .  S
O1475      C1476   1.261       .  A
C1476      C1692   1.481       .  S
Cr1477     O1480   1.761       .  S
Cr1478     O1480   1.761       .  S
Cr1479     O1480   1.761       .  S
O1481     Cr1499   1.972       .  S
O1481      C1489   1.261       .  A
O1482     Cr1499   2.014       .  S
O1482      C1483   1.264       .  A
C1483      O1484   1.258       .  A
C1483      C1653   1.478       .  S
O1484     Cr1500   1.988       .  S
O1485     Cr1500   2.048       .  S
O1485      C1486   1.277       .  A
C1486      O1487   1.252       .  A
O1487     Cr1501   1.939       .  S
O1488     Cr1501   2.012       .  S
O1488      C1489   1.271       .  A
C1489      C1617   1.482       .  S
O1490     Cr1499   2.021       .  S
O1490      C1498   1.270       .  A
O1491     Cr1499   1.946       .  S
O1491      C1492   1.260       .  A
C1492      O1493   1.275       .  A
C1492      C1605   1.479       .  S
O1493     Cr1500   2.031       .  S
O1494      C1495   1.250   1_554  A
C1495      O1496   1.268       .  A
C1495      C1644   1.486       .  S
O1497     Cr1501   1.988       .  S
O1497      C1498   1.264       .  A
C1498      C1629   1.497       .  S
Cr1499     O1502   1.759       .  S
Cr1500     O1502   1.763       .  S
Cr1501     O1502   1.766       .  S
O1503     Cr1521   2.010       .  S
O1503      C1511   1.269       .  A
O1504     Cr1521   1.945       .  S
O1504      C1505   1.253       .  A
C1505      O1506   1.277       .  A
O1506     Cr1522   2.049       .  S
O1507     Cr1522   1.987       .  S
O1507      C1508   1.257       .  A
C1508      O1509   1.263       .  A
C1508      C1704   1.473   1_545  S
O1509     Cr1523   2.007       .  S
O1510     Cr1523   1.977       .  S
O1510      C1511   1.261       .  A
C1511      C1581   1.475       .  S
O1512     Cr1521   1.984       .  S
O1512      C1520   1.263       .  A
O1513      C1514   1.267       .  A
C1514      O1515   1.252   1_556  A
C1514      C1716   1.479       .  S
O1516     Cr1522   2.038       .  S
O1516      C1517   1.277       .  A
C1517      O1518   1.261       .  A
C1517      C1593   1.485       .  S
O1518     Cr1523   1.949       .  S
O1519     Cr1523   2.023       .  S
O1519      C1520   1.271       .  A
C1520      C1632   1.495       .  S
Cr1521     O1524   1.762       .  S
Cr1522     O1524   1.763       .  S
Cr1523     O1524   1.759       .  S
O1525     Cr1543   2.011       .  S
O1525      C1533   1.270       .  A
O1526     Cr1543   1.935       .  S
O1526      C1527   1.250       .  A
C1527      O1528   1.279       .  A
C1527      C1668   1.477       .  S
O1528     Cr1544   2.053       .  S
O1529     Cr1544   1.975       .  S
O1529      C1530   1.253       .  A
C1530      O1531   1.264       .  A
C1530      C1764   1.469       .  S
O1531     Cr1545   2.013       .  S
O1532     Cr1545   1.969       .  S
O1532      C1533   1.260       .  A
C1533      C1608   1.478       .  S
O1534     Cr1543   1.984       .  S
O1534      C1542   1.266       .  A
O1535     Cr1543   2.044       .  S
O1535      C1536   1.270       .  A
C1536      O1537   1.250       .  A
C1536      C1776   1.492       .  S
O1537     Cr1544   1.961       .  S
O1538     Cr1544   2.042       .  S
O1538      C1539   1.278       .  A
C1539      O1540   1.257       .  A
C1539      C1620   1.480       .  S
O1540     Cr1545   1.939       .  S
O1541     Cr1545   2.022       .  S
O1541      C1542   1.271       .  A
C1542      C1569   1.493       .  S
Cr1543     O1546   1.763       .  S
Cr1544     O1546   1.761       .  S
Cr1545     O1546   1.761       .  S
O1547     Cr1565   1.980       .  S
O1547      C1555   1.261       .  A
O1548     Cr1565   2.011       .  S
O1548      C1549   1.264       .  A
C1549      O1550   1.258       .  A
C1549      C1836   1.474   1_545  S
O1550     Cr1566   1.983       .  S
O1551     Cr1566   2.049       .  S
O1551      C1552   1.278       .  A
C1552      O1553   1.253       .  A
C1552      C1680   1.483       .  S
O1553     Cr1567   1.944       .  S
O1554     Cr1567   2.008       .  S
O1554      C1555   1.268       .  A
C1555      C1596   1.481       .  S
O1556     Cr1565   2.026       .  S
O1556      C1564   1.272       .  A
O1557     Cr1565   1.954       .  S
O1557      C1558   1.261       .  A
C1558      O1559   1.274       .  A
C1558      C1584   1.484       .  S
O1559     Cr1566   2.027       .  S
O1560     Cr1566   1.965       .  S
O1560      C1561   1.250       .  A
C1561      O1562   1.266       .  A
C1561      C1824   1.478       .  S
O1562     Cr1567   2.027       .  S
O1563     Cr1567   1.978       .  S
O1563      C1564   1.262       .  A
C1564      C1572   1.493       .  S
Cr1565     O1568   1.761       .  S
Cr1566     O1568   1.763       .  S
Cr1567     O1568   1.765       .  S
C1569      C1570   1.406       .  A
C1569      C1574   1.415       .  A
C1570      C1571   1.403       .  A
C1570      H1575   1.083       .  S
C1571      C1572   1.414       .  A
C1571      O1576   1.371       .  S
C1572      C1573   1.406       .  A
C1573      C1574   1.402       .  A
C1573      H1577   1.083       .  S
C1574      O1578   1.372       .  S
O1576      H1580   0.992       .  S
O1578      H1579   0.992       .  S
C1582      C1583   1.403       .  A
C1582      H1587   1.084       .  S
C1583      C1584   1.412       .  A
C1583      O1588   1.371       .  S
C1584      C1585   1.408       .  A
C1585      C1586   1.393       .  A
C1585      H1589   1.083       .  S
O1588      H1592   0.992       .  S
O1590      H1591   0.992   1_455  S
C1593      C1594   1.407       .  A
C1593      C1598   1.410       .  A
C1594      C1595   1.392       .  A
C1594      H1599   1.083       .  S
C1595      C1596   1.407       .  A
C1595      O1600   1.372       .  S
C1596      C1597   1.408       .  A
C1597      C1598   1.405       .  A
C1597      H1601   1.083       .  S
C1598      O1602   1.372       .  S
O1600      H1604   0.992       .  S
O1602      H1603   0.992       .  S
C1605      C1606   1.406       .  A
C1605      C1610   1.409       .  A
C1606      C1607   1.391       .  A
C1606      H1611   1.083       .  S
C1607      C1608   1.407       .  A
C1607      O1612   1.372       .  S
C1608      C1609   1.409       .  A
C1609      C1610   1.402       .  A
C1609      H1613   1.084       .  S
C1610      O1614   1.372       .  S
O1612      H1616   0.992       .  S
O1614      H1615   0.992       .  S
C1618      C1619   1.392       .  A
C1619      C1620   1.415       .  A
C1619      O1624   1.373       .  S
C1620      C1621   1.402       .  A
C1621      C1622   1.404       .  A
C1621      H1625   1.083       .  S
O1624      H1628   0.992       .  S
C1629      C1630   1.408       .  A
C1629      C1634   1.414       .  A
C1630      C1631   1.407       .  A
C1631      C1632   1.414       .  A
C1632      C1633   1.406       .  A
C1633      C1634   1.401       .  A
C1633      H1637   1.083       .  S
C1634      O1638   1.372       .  S
O1636      H1640   0.992       .  S
O1638      H1639   0.992       .  S
C1641      C1642   1.399       .  A
C1641      C1646   1.407       .  A
C1642      C1643   1.402       .  A
C1642      H1647   1.084       .  S
C1643      C1644   1.417       .  A
C1643      O1648   1.372       .  S
C1644      C1645   1.406       .  A
C1645      C1646   1.401       .  A
C1645      H1649   1.084       .  S
C1646      O1650   1.372       .  S
O1648      H1652   0.992       .  S
O1650      H1651   0.991       .  S
C1653      C1654   1.402       .  A
C1653      C1658   1.408       .  A
C1654      C1655   1.409       .  A
C1654      H1659   1.083       .  S
C1655      C1656   1.415       .  A
C1655      O1660   1.372       .  S
C1656      C1657   1.405       .  A
C1657      C1658   1.400       .  A
C1657      H1661   1.084       .  S
C1658      O1662   1.372       .  S
O1660      H1664   0.992       .  S
O1662      H1663   0.992       .  S
C1665      C1666   1.399       .  A
C1665      C1670   1.418       .  A
C1666      C1667   1.400       .  A
C1666      H1671   1.084       .  S
C1667      C1668   1.419       .  A
C1667      O1672   1.373       .  S
C1668      C1669   1.397       .  A
C1669      C1670   1.398       .  A
C1669      H1673   1.084       .  S
C1670      O1674   1.373       .  S
O1672      H1676   0.992       .  S
O1674      H1675   0.992       .  S
C1677      C1678   1.400   1_565  A
C1677      C1682   1.418       .  A
C1678      C1679   1.400       .  A
C1678      H1683   1.084       .  S
C1679      C1680   1.418       .  A
C1679      O1684   1.372       .  S
C1680      C1681   1.400   1_545  A
C1681      C1682   1.399       .  A
C1681      H1685   1.083       .  S
C1682      O1686   1.372       .  S
O1684      H1688   0.992       .  S
O1686      H1687   0.992       .  S
C1689      C1690   1.405       .  A
C1689      C1694   1.410       .  A
C1690      C1691   1.399       .  A
C1690      H1695   1.083       .  S
C1691      C1692   1.411       .  A
C1691      O1696   1.372       .  S
C1692      C1693   1.405       .  A
C1693      C1694   1.399       .  A
C1693      H1697   1.084       .  S
C1694      O1698   1.371       .  S
O1696      H1700   0.992       .  S
O1698      H1699   0.991       .  S
C1701      C1702   1.402       .  A
C1701      C1706   1.413       .  A
C1702      C1703   1.396       .  A
C1702      H1707   1.084       .  S
C1703      C1704   1.407       .  A
C1703      O1708   1.372   1_565  S
C1704      C1705   1.402       .  A
C1705      C1706   1.407       .  A
C1705      H1709   1.083       .  S
C1706      O1710   1.372       .  S
O1708      H1712   0.991   1_545  S
O1710      H1711   0.992       .  S
C1713      C1714   1.401       .  A
C1713      C1718   1.407       .  A
C1714      C1715   1.404       .  A
C1714      H1719   1.084       .  S
C1715      C1716   1.413       .  A
C1715      O1720   1.371       .  S
C1716      C1717   1.404       .  A
C1717      C1718   1.399       .  A
C1717      H1721   1.084       .  S
C1718      O1722   1.373       .  S
O1720      H1724   0.992       .  S
O1722      H1723   0.992   1_545  S
C1725      C1726   1.412       .  A
C1725      C1730   1.404       .  A
C1726      H1731   1.084       .  S
C1727      O1732   1.372       .  S
C1728      C1729   1.411   1_656  A
C1729      H1733   1.084       .  S
C1730      O1734   1.371   1_556  S
O1732      H1736   0.992       .  S
C1737      C1738   1.400   1_455  A
C1737      C1742   1.413   1_455  A
C1738      C1739   1.393       .  A
C1738      H1743   1.084       .  S
C1739      C1740   1.417       .  A
C1739      O1744   1.373       .  S
C1740      C1741   1.403       .  A
C1741      C1742   1.401       .  A
C1741      H1745   1.083       .  S
O1744      H1748   0.992       .  S
O1746      H1747   0.992       .  S
C1749      C1750   1.404       .  A
C1749      C1754   1.417       .  A
C1750      C1751   1.402       .  A
C1750      H1755   1.083       .  S
C1751      C1752   1.414       .  A
C1751      O1756   1.372       .  S
C1752      C1753   1.398       .  A
C1753      C1754   1.392       .  A
C1753      H1757   1.084       .  S
C1754      O1758   1.372       .  S
O1756      H1760   0.991       .  S
O1758      H1759   0.992       .  S
C1761      C1762   1.405       .  A
C1761      C1766   1.416       .  A
C1762      C1763   1.401       .  A
C1762      H1767   1.083       .  S
C1763      C1764   1.407       .  A
C1763      O1768   1.373       .  S
C1764      C1765   1.398       .  A
C1765      C1766   1.401       .  A
C1765      H1769   1.084       .  S
C1766      O1770   1.372       .  S
O1768      H1772   0.992       .  S
O1770      H1771   0.992       .  S
C1773      C1774   1.401       .  A
C1773      C1778   1.409       .  A
C1774      C1775   1.408       .  A
C1774      H1779   1.084       .  S
C1775      C1776   1.417       .  A
C1775      O1780   1.372       .  S
C1776      C1777   1.406       .  A
C1777      C1778   1.405       .  A
C1777      H1781   1.084       .  S
C1778      O1782   1.372       .  S
O1780      H1784   0.992       .  S
O1782      H1783   0.991       .  S
C1785      C1786   1.407       .  A
C1785      C1790   1.406       .  A
C1786      C1787   1.405       .  A
C1786      H1791   1.084       .  S
C1787      C1788   1.410       .  A
C1787      O1792   1.371       .  S
C1788      C1789   1.409       .  A
C1789      C1790   1.392       .  A
C1789      H1793   1.083       .  S
C1790      O1794   1.372       .  S
O1792      H1796   0.992       .  S
O1794      H1795   0.992       .  S
C1797      C1798   1.398   1_455  A
C1797      C1802   1.411   1_455  A
C1798      C1799   1.395       .  A
C1798      H1803   1.084       .  S
C1799      C1800   1.417       .  A
C1799      O1804   1.372       .  S
C1800      C1801   1.405       .  A
C1801      C1802   1.402       .  A
C1801      H1805   1.083       .  S
O1804      H1808   0.992       .  S
C1809      C1810   1.407       .  A
C1809      C1814   1.413       .  A
C1810      C1811   1.405       .  A
C1810      H1815   1.083       .  S
C1811      C1812   1.414       .  A
C1811      O1816   1.372       .  S
C1812      C1813   1.405       .  A
C1813      C1814   1.398       .  A
C1813      H1817   1.083       .  S
C1814      O1818   1.371       .  S
O1816      H1820   0.992       .  S
O1818      H1819   0.992       .  S
C1821      C1822   1.402       .  A
C1821      C1826   1.408       .  A
C1822      C1823   1.407       .  A
C1822      H1827   1.084       .  S
C1823      C1824   1.413       .  A
C1823      O1828   1.372       .  S
C1824      C1825   1.403       .  A
C1825      C1826   1.398       .  A
C1825      H1829   1.084       .  S
C1826      O1830   1.372       .  S
O1828      H1832   0.992       .  S
O1830      H1831   0.992   1_545  S
C1833      C1834   1.411       .  A
C1833      C1838   1.413       .  A
C1834      C1835   1.402       .  A
C1834      H1839   1.084       .  S
C1835      C1836   1.402       .  A
C1835      O1840   1.372       .  S
C1836      C1837   1.404       .  A
C1837      C1838   1.404       .  A
C1837      H1841   1.084       .  S
C1838      O1842   1.371       .  S
O1840      H1844   0.992   1_565  S
O1842      H1843   0.992       .  S
C1845      C1846   1.413   1_655  A
C1846      C1847   1.400   1_554  A
C1846      H1851   1.084       .  S
C1847      O1852   1.372       .  S
C1848      C1849   1.414       .  A
C1850      O1854   1.371       .  S
O1852      H1856   0.992   1_556  S
