geometry optimzed in LAMMPS
_audit_creation_date              2020-11-30 
_audit_creation_method            'lammps2cif' 
_symmetry_space_group_name_H-M    'P1' 
_symmetry_Int_Tables_number       1 
_symmetry_cell_setting            triclinic 
loop_ 
_symmetry_equiv_pos_as_xyz 
  x,y,z 
_cell_length_a                    43.66237733 
_cell_length_b                    36.33008182207886 
_cell_length_c                    38.676601583424045 
_cell_angle_alpha                 89.78790488700615 
_cell_angle_beta                  89.42673310835085 
_cell_angle_gamma                 90.49286361062305 
loop_ 
_atom_site_label 
_atom_site_type_symbol 
_atom_site_fract_x 
_atom_site_fract_y 
_atom_site_fract_z 
_atom_site_charge 
O1          O  0.06311364  0.91736668  0.35318191    -0.85300
O2          O  0.11750511  0.95659738  0.34387152    -0.82400
C3          C  0.11175716  0.98934949  0.35279258     0.98100
O4          O  0.10373492  0.99624181  0.38336410    -0.82400
O5          O  0.07999261  0.98344115  0.44920999    -0.85100
C6          C  0.05211286  0.97231085  0.44834861     1.02700
O7          O  0.04553561  0.94141289  0.43627210    -0.77800
O8          O  0.04677742  0.88250479  0.39583234    -0.78000
C9          C  0.04141151  0.90063970  0.36832494     1.02600
O10         O  0.09724100  0.85447384  0.37829225    -0.85300
O11         O  0.14796603  0.89775023  0.37766271    -0.82400
C12         C  0.16694939  0.92191796  0.38686521     0.98200
O13         O  0.15788834  0.95290728  0.39824859    -0.82400
O14         O  0.13485303  0.93902113  0.46163036    -0.85000
C15         C  0.11791974  0.93134175  0.48683431     1.02600
O16         O  0.09194675  0.91677896  0.48102426    -0.77800
O17         O  0.09928472  0.85595191  0.43469033    -0.78000
C18         C  0.10071686  0.83779298  0.40694556     1.02600
Cr19       Cr  0.10582408  0.90782856  0.36600859     1.93700
Cr20       Cr  0.11763726  0.96517254  0.42217201     1.93200
Cr21       Cr  0.07322853  0.90041652  0.43518209     1.39100
O22         O  0.09885168  0.92495906  0.40777596    -1.23100
O23         O  0.04134121  0.63445927  0.39251853    -0.85300
O24         O  0.03721420  0.57539069  0.43384649    -0.82400
C25         C  0.04311987  0.54456090  0.44669050     0.98100
O26         O  0.07046316  0.53242185  0.44686252    -0.82400
O27         O  0.09275552  0.51931912  0.38101331    -0.85100
C28         C  0.10128708  0.52562719  0.35043313     1.02700
O29         O  0.10910062  0.55791366  0.34139381    -0.77800
O30         O  0.05654450  0.59902244  0.35037533    -0.78000
C31         C  0.03528654  0.61581379  0.36573224     1.02600
O32         O  0.09424204  0.65929188  0.43122600    -0.85300
O33         O  0.08426545  0.59907808  0.47771747    -0.82400
C34         C  0.10917971  0.58311607  0.48456809     0.98200
O35         O  0.12661728  0.57385754  0.46026894    -0.82400
O36         O  0.14917880  0.55994147  0.39594223    -0.85000
C37         C  0.15982908  0.59042511  0.38432221     1.02600
O38         O  0.14213643  0.61542707  0.37458240    -0.77800
O39         O  0.09302775  0.66075324  0.37481299    -0.78000
C40         C  0.09670855  0.67736101  0.40333051     1.02600
Cr41       Cr  0.06657129  0.61572615  0.43202428     1.93700
Cr42       Cr  0.10849205  0.54927526  0.41989136     1.93200
Cr43       Cr  0.09948232  0.60709438  0.36311865     1.39100
O44         O  0.09161353  0.59036621  0.40516583    -1.23100
O45         O  0.29440602  0.87726367  0.31947084    -0.85300
O46         O  0.29173613  0.93896634  0.28165628    -0.82400
C47         C  0.29850605  0.96969197  0.26874985     0.98100
O48         O  0.32660344  0.98011316  0.26721783    -0.82400
O49         O  0.35103595  0.98890989  0.33329354    -0.85100
C50         C  0.36008435  0.98032120  0.36302778     1.02700
O51         O  0.36733420  0.94735504  0.36968402    -0.77800
O52         O  0.31348598  0.90865429  0.36269805    -0.78000
C53         C  0.29107090  0.89332943  0.34836196     1.02600
O54         O  0.34438260  0.85202577  0.27603852    -0.85300
O55         O  0.33704226  0.91561399  0.23329375    -0.82400
C56         C  0.36328059  0.92943266  0.22680178     0.98200
O57         O  0.38087521  0.93581184  0.25142669    -0.82400
O58         O  0.40545644  0.94733994  0.31468956    -0.85000
C59         C  0.41509698  0.91598000  0.32468777     1.02600
O60         O  0.39648170  0.89025670  0.33065685    -0.77800
O61         O  0.34539614  0.84759270  0.33241812    -0.78000
C62         C  0.34688347  0.83246395  0.30292545     1.02600
Cr63       Cr  0.31920524  0.89714882  0.27928746     1.93700
Cr64       Cr  0.36460476  0.96037488  0.29246855     1.93200
Cr65       Cr  0.35501116  0.89982935  0.34618580     1.39100
O66         O  0.34613457  0.91951512  0.30601262    -1.23100
O67         O  0.30895200  0.59369893  0.36316045    -0.85300
O68         O  0.36354119  0.55599979  0.36891866    -0.82400
C69         C  0.35594179  0.52320959  0.36201456     0.98100
O70         O  0.34469570  0.51585086  0.33299723    -0.82400
O71         O  0.31966768  0.52621465  0.26741947    -0.85100
C72         C  0.29211594  0.53785614  0.26915743     1.02700
O73         O  0.28657586  0.56836840  0.28262348    -0.77800
O74         O  0.29136107  0.62827913  0.32150402    -0.78000
C75         C  0.28687766  0.60955244  0.34888989     1.02600
O76         O  0.34231994  0.65674140  0.33417966    -0.85300
O77         O  0.39261432  0.61363745  0.33138530    -0.82400
C78         C  0.41050878  0.58770861  0.32440156     0.98200
O79         O  0.40017090  0.55704250  0.31305955    -0.82400
O80         O  0.37474110  0.56808980  0.24929932    -0.85000
C81         C  0.35652025  0.57689963  0.22586795     1.02600
O82         O  0.33139847  0.59207853  0.23395590    -0.77800
O83         O  0.34176687  0.65383084  0.27775374    -0.78000
C84         C  0.34510338  0.67254900  0.30495176     1.02600
Cr85       Cr  0.35096776  0.60382490  0.34676452     1.93700
Cr86       Cr  0.35860175  0.54454455  0.29169960     1.93200
Cr87       Cr  0.31509049  0.60944086  0.28049483     1.39100
O88         O  0.34176661  0.58570047  0.30603166    -1.23100
O89         O  0.42373700  0.41389022  0.11260140    -0.85300
O90         O  0.36860440  0.45220491  0.11615870    -0.82400
C91         C  0.37674570  0.48475367  0.10838122     0.98100
O92         O  0.38874947  0.49134158  0.07931903    -0.82400
O93         O  0.41577482  0.47957501  0.01489720    -0.85100
C94         C  0.44323324  0.46790945  0.01730029     1.02700
O95         O  0.44854623  0.43745239  0.03102270    -0.77800
O96         O  0.44308798  0.37889708  0.07200657    -0.78000
C97         C  0.44653674  0.39804367  0.09917635     1.02600
O98         O  0.39115129  0.35022133  0.08464074    -0.85300
O99         O  0.34042263  0.39343724  0.07968894    -0.82400
C100        C  0.32302040  0.41868009  0.06956781     0.98200
O101        O  0.33411919  0.44956718  0.05935957    -0.82400
O102        O  0.35984932  0.43281830  0.49889299    -0.85000
C103        C  0.37889909  0.42564992  0.47558721     1.02600
O104        O  0.40461118  0.41246210  0.48397503    -0.77800
O105        O  0.39353829  0.35215041  0.02830795    -0.78000
C106        C  0.39019842  0.33365120  0.05579813     1.02600
Cr107      Cr  0.38191306  0.40356368  0.09566917     1.93700
Cr108      Cr  0.37617831  0.46156071  0.03893157     1.93200
Cr109      Cr  0.42003325  0.39654780  0.03008526     1.39100
O110        O  0.39264716  0.42085238  0.05472517    -1.23100
O111        O  0.45302972  0.13184732  0.06742586    -0.85300
O112        O  0.45719650  0.07072774  0.02998529    -0.82400
C113        C  0.45126451  0.03929405  0.01867812     0.98100
O114        O  0.42358863  0.02779449  0.01700331    -0.82400
O115        O  0.40057093  0.01772260  0.08295047    -0.85100
C116        C  0.39086220  0.02519428  0.11272527     1.02700
O117        O  0.38282296  0.05769623  0.11998703    -0.77800
O118        O  0.43566246  0.09899958  0.11109071    -0.78000
C119        C  0.45758045  0.11522927  0.09592004     1.02600
O120        O  0.40149019  0.15480028  0.02543198    -0.85300
O121        O  0.40900173  0.09445900  0.48161330    -0.82400
C122        C  0.38308971  0.07939963  0.47654774     0.98200
O123        O  0.36613626  0.07359298  0.50221605    -0.82400
O124        O  0.34431210  0.05627719  0.06593864    -0.85000
C125        C  0.33350158  0.08705782  0.07578239     1.02600
O126        O  0.35120072  0.11340763  0.08278516    -0.77800
O127        O  0.40087532  0.15869937  0.08193350    -0.78000
C128        C  0.39801591  0.17383405  0.05248838     1.02600
Cr129      Cr  0.42833195  0.11096108  0.02796128     1.93700
Cr130      Cr  0.38533458  0.04547342  0.04275573     1.93200
Cr131      Cr  0.39341017  0.10596243  0.09627556     1.39100
O132        O  0.40233456  0.08722180  0.05559566    -1.23100
O133        O  0.19399955  0.38336020  0.14152645    -0.85300
O134        O  0.19552658  0.44165416  0.18255286    -0.82400
C135        C  0.18910807  0.47100382  0.19762355     0.98100
O136        O  0.16128956  0.48172692  0.19910776    -0.82400
O137        O  0.13842073  0.49423631  0.13275474    -0.85100
C138        C  0.12849710  0.48772280  0.10295237     1.02700
O139        O  0.12098460  0.45520302  0.09473665    -0.77800
O140        O  0.17571382  0.41813688  0.10024451    -0.78000
C141        C  0.19802389  0.40229568  0.11407558     1.02600
O142        O  0.14294229  0.35380740  0.18281523    -0.85300
O143        O  0.14995429  0.41473000  0.22923761    -0.82400
C144        C  0.12419804  0.42901717  0.23643040     0.98200
O145        O  0.10658492  0.43673786  0.21213761    -0.82400
O146        O  0.08295173  0.45122004  0.14852107    -0.85000
C147        C  0.07335512  0.42061367  0.13626398     1.02600
O148        O  0.09184044  0.39518939  0.12971119    -0.77800
O149        O  0.14339009  0.35334204  0.12635185    -0.78000
C150        C  0.14133672  0.33596450  0.15490057     1.02600
Cr151      Cr  0.16826299  0.39952431  0.18249962     1.93700
Cr152      Cr  0.12362405  0.46338277  0.17211464     1.93200
Cr153      Cr  0.13366059  0.40655077  0.11546998     1.39100
O154        O  0.14175598  0.42338141  0.15687744    -1.23100
O155        O  0.18617707  0.09391436  0.10091514    -0.85300
O156        O  0.13224136  0.05487310  0.09357518    -0.82400
C157        C  0.13825706  0.02238900  0.10325754     0.98100
O158        O  0.14604739  0.01623594  0.13393351    -0.82400
O159        O  0.16906545  0.03094108  0.19951543    -0.85100
C160        C  0.19710328  0.04179432  0.19863866     1.02700
O161        O  0.20406900  0.07194550  0.18463468    -0.77800
O162        O  0.20274545  0.13012130  0.14204347    -0.78000
C163        C  0.20781686  0.11084145  0.11524597     1.02600
O164        O  0.15241651  0.15798079  0.12443117    -0.85300
O165        O  0.10153354  0.11490556  0.12564654    -0.82400
C166        C  0.08246600  0.09047543  0.13449541     0.98200
O167        O  0.09152848  0.06009409  0.14739339    -0.82400
O168        O  0.11412340  0.07634419  0.21016812    -0.85000
C169        C  0.13101140  0.08364962  0.23506254     1.02600
O170        O  0.15708664  0.09798766  0.22876802    -0.77800
O171        O  0.15003948  0.15775515  0.18086033    -0.78000
C172        C  0.14837738  0.17525281  0.15261844     1.02600
Cr173      Cr  0.14373612  0.10427181  0.11391338     1.93700
Cr174      Cr  0.13162451  0.04850923  0.17178576     1.93200
Cr175      Cr  0.17620164  0.11324575  0.18235087     1.39100
O176        O  0.15062800  0.08816212  0.15599642    -1.23100
C177        C  0.14530132  0.27612366  0.12348195    -0.12200
C178        C  0.14006758  0.29469927  0.15480757     0.04800
C179        C  0.13569778  0.27329941  0.18514159    -0.07500
C180        C  0.13770926  0.23465153  0.18375501    -0.08300
C181        C  0.14391671  0.21618273  0.15252092    -0.02800
C182        C  0.14719179  0.23763077  0.12201755     0.04000
N183        N  0.15347308  0.22105550  0.08928645     0.66500
H184        H  0.14872932  0.29159448  0.09973182     0.15400
H185        H  0.13473732  0.21906960  0.20750782     0.15100
N186        N  0.12924268  0.29023198  0.21765264     0.74200
O187        O  0.13156217  0.21095035  0.07042635    -0.39300
O188        O  0.18024887  0.22253920  0.07676837    -0.39200
O189        O  0.10181257  0.29391822  0.22752259    -0.39900
O190        O  0.15067482  0.29609349  0.23862739    -0.40000
C191        C  0.99504707  0.08720730  0.13285957    -0.12200
C192        C  0.48866318  0.11232788  0.11046261     0.04800
C193        C  0.01339473  0.13713303  0.09635687    -0.07500
C194        C  0.04331507  0.12827233  0.10531334    -0.08300
C195        C  0.04978801  0.09818466  0.12725920    -0.02800
C196        C  0.02503297  0.07788825  0.14163929     0.04000
N197        N  0.02946395  0.04759141  0.16472636     0.66500
H198        H  0.97648191  0.07039244  0.14304571     0.15400
H199        H  0.06164992  0.14501762  0.09434001     0.15100
N200        N  0.50779134  0.16684895  0.07822785     0.74200
O201        O  0.01486923  0.04676804  0.19304375    -0.39300
O202        O  0.04052768  0.01807450  0.15319072    -0.39200
O203        O  0.50201645  0.19738908  0.09217463    -0.39900
O204        O  0.51411954  0.16567001  0.04634676    -0.40000
C205        C  0.24819898  0.07082850  0.09149523    -0.12200
C206        C  0.23906947  0.10614172  0.10176846     0.04800
C207        C  0.26035927  0.13523583  0.10088448    -0.07500
C208        C  0.29049260  0.12852995  0.09059169    -0.08300
C209        C  0.30026743  0.09282892  0.08165987    -0.02800
C210        C  0.27851673  0.06385169  0.08162712     0.04000
N211        N  0.28690492  0.02699550  0.07322368     0.66500
H212        H  0.23190502  0.04813827  0.09230434     0.15400
H213        H  0.30646376  0.15152961  0.09039833     0.15100
N214        N  0.25163050  0.17183256  0.10981283     0.74200
O215        O  0.28593152  0.00247602  0.09641140    -0.39300
O216        O  0.28910651  0.01763090  0.04191856    -0.39200
O217        O  0.25882985  0.18475328  0.13888636    -0.39900
O218        O  0.24202820  0.19317089  0.08659502    -0.40000
C219        C  0.24715045  0.37501177  0.09533288    -0.12200
C220        C  0.22875378  0.40611350  0.09843461     0.04800
C221        C  0.24007120  0.44052048  0.08652985    -0.07500
C222        C  0.27021165  0.44355055  0.07411783    -0.08300
C223        C  0.28947774  0.41295098  0.07350185    -0.02800
C224        C  0.27695197  0.37788962  0.08190891     0.04000
N225        N  0.29394360  0.34490253  0.07634849     0.66500
H226        H  0.23811280  0.34822248  0.10279728     0.15400
H227        H  0.27906528  0.47046023  0.06697003     0.15100
N228        N  0.22208301  0.47315277  0.08886021     0.74200
O229        O  0.29672984  0.32189991  0.10059312    -0.39300
O230        O  0.30185326  0.33610639  0.04602431    -0.39200
O231        O  0.21455698  0.48551367  0.11816040    -0.39900
O232        O  0.21939602  0.49340938  0.06251679    -0.40000
C233        C  0.01745540  0.43293091  0.14483312    -0.12200
C234        C  0.04081585  0.41442401  0.12715813     0.04800
C235        C  0.03279399  0.38882398  0.10112744    -0.07500
C236        C  0.00204596  0.38186782  0.09389972    -0.08300
C237        C  0.47734224  0.40269917  0.11422405    -0.02800
C238        C  0.48824613  0.43752152  0.12503581     0.04000
N239        N  0.46963261  0.46956783  0.12289353     0.66500
H240        H  0.02321721  0.45240123  0.16495919     0.15400
H241        H  0.99673682  0.36278754  0.07329439     0.15100
N242        N  0.05558511  0.37122765  0.08016405     0.74200
O243        O  0.46610715  0.48919301  0.14944154    -0.39300
O244        O  0.46330003  0.48276558  0.09363169    -0.39200
O245        O  0.05636356  0.33656119  0.07846131    -0.39900
O246        O  0.07280517  0.39027892  0.06057517    -0.40000
C247        C  0.39865485  0.27474671  0.02385400    -0.12200
C248        C  0.38860243  0.29251457  0.05422880     0.04800
C249        C  0.37918672  0.27030301  0.08271421    -0.07500
C250        C  0.38082681  0.23182945  0.08042191    -0.08300
C251        C  0.39255466  0.21428971  0.05087447    -0.02800
C252        C  0.40105885  0.23623732  0.02208674     0.04000
N253        N  0.40590747  0.22044492  0.49130537     0.66500
H254        H  0.40130002  0.29117123  0.50240232     0.15400
H255        H  0.37392503  0.21553117  0.10274517     0.15100
N256        N  0.36854688  0.28584628  0.11458481     0.74200
O257        O  0.38587831  0.21228269  0.46926004    -0.39300
O258        O  0.43390580  0.21931672  0.48300471    -0.39200
O259        O  0.34304415  0.27532344  0.12688075    -0.39900
O260        O  0.38765191  0.30062292  0.13461872    -0.40000
C261        C  0.33929147  0.46955857  0.39894629    -0.12200
C262        C  0.36260665  0.49349022  0.38722366     0.04800
C263        C  0.39230304  0.48972184  0.40084149    -0.07500
C264        C  0.39790552  0.46357720  0.42669815    -0.08300
C265        C  0.37406418  0.44189147  0.44076087    -0.02800
C266        C  0.34460393  0.44448774  0.42607199     0.04000
N267        N  0.31961505  0.42289102  0.43936121     0.66500
H268        H  0.31648753  0.47174147  0.38839219     0.15400
H269        H  0.42053687  0.46265983  0.43793345     0.15100
N270        N  0.41688248  0.51318953  0.38948977     0.74200
O271        O  0.30087930  0.43699431  0.46042737    -0.39300
O272        O  0.31325356  0.39240474  0.42553953    -0.39200
O273        O  0.42268752  0.54231159  0.40594528    -0.39900
O274        O  0.43616599  0.50137486  0.36780358    -0.40000
C275        C  0.39624859  0.53140455  0.14963721    -0.12200
C276        C  0.37131960  0.51494433  0.13329367     0.04800
C277        C  0.34146406  0.52511938  0.14341236    -0.07500
C278        C  0.33709794  0.54909223  0.17147045    -0.08300
C279        C  0.36216443  0.56275629  0.19025579    -0.02800
C280        C  0.39205632  0.55450288  0.17826561     0.04000
N281        N  0.41846014  0.56670336  0.19657164     0.66500
H282        H  0.41917483  0.52477431  0.14125431     0.15400
H283        H  0.31392562  0.55480502  0.18007270     0.15100
N284        N  0.31540409  0.51133236  0.12535607     0.74200
O285        O  0.43616572  0.54320744  0.20945981    -0.39300
O286        O  0.42684040  0.59997532  0.19467196    -0.39200
O287        O  0.29650120  0.49021545  0.14056730    -0.39900
O288        O  0.30852906  0.52535245  0.09659969    -0.40000
C289        C  0.23666440  0.53592835  0.25351690    -0.12200
C290        C  0.26567010  0.51869469  0.25277876     0.04800
C291        C  0.26882246  0.48603210  0.23384859    -0.07500
C292        C  0.24391279  0.47219535  0.21532413    -0.08300
C293        C  0.21499871  0.48965495  0.21560399    -0.02800
C294        C  0.21158300  0.52178975  0.23532892     0.02400
N295        N  0.18296045  0.54047731  0.23726309     0.66500
H296        H  0.23329243  0.56106312  0.26800258     0.15400
H297        H  0.24734932  0.44691052  0.20109722     0.15100
N298        N  0.29677027  0.46584877  0.23395406     0.74200
O299        O  0.16506941  0.53451216  0.26252565    -0.39300
O300        O  0.17791062  0.56705484  0.21707822    -0.39200
O301        O  0.30006490  0.43980187  0.25522544    -0.39900
O302        O  0.31624077  0.47057776  0.21000255    -0.40000
C303        C  0.24245047  0.97692386  0.25684063    -0.12200
C304        C  0.27275894  0.99070801  0.25285006     0.04800
C305        C  0.27761980  0.02087137  0.23045475    -0.07500
C306        C  0.25291801  0.03571911  0.21221527    -0.08300
C307        C  0.22265010  0.02177893  0.21600827    -0.02800
C308        C  0.21773147  0.99187395  0.23867022     0.04000
N309        N  0.18791404  0.97598437  0.24328889     0.66500
H310        H  0.23779515  0.95361261  0.27370008     0.15400
H311        H  0.25762068  0.05891805  0.19523669     0.15100
N312        N  0.30745518  0.03673024  0.22570785     0.74200
O313        O  0.17825620  0.95224664  0.22220786    -0.39300
O314        O  0.17185747  0.98416309  0.26939401    -0.39200
O315        O  0.32142294  0.03322622  0.19720920    -0.39900
O316        O  0.31854984  0.05725711  0.24875581    -0.40000
C317        C  0.35887479  0.77245353  0.33069083    -0.12200
C318        C  0.34946239  0.79161750  0.30106250     0.04800
C319        C  0.34091293  0.77107802  0.27163722    -0.07500
C320        C  0.34126055  0.73238027  0.27275146    -0.08300
C321        C  0.34935664  0.71329989  0.30301262    -0.02800
C322        C  0.35884956  0.73395138  0.33196813     0.04000
N323        N  0.36829673  0.71634939  0.36315711     0.66500
H324        H  0.36590260  0.78745492  0.35348788     0.15400
H325        H  0.33356042  0.71725003  0.25032010     0.15100
N326        N  0.32968614  0.78883030  0.24131430     0.74200
O327        O  0.39572854  0.70632059  0.36628232    -0.39300
O328        O  0.35067988  0.71599010  0.38922695    -0.39200
O329        O  0.34563361  0.78904079  0.21392934    -0.39900
O330        O  0.30215959  0.79908102  0.24036096    -0.40000
C331        C  0.40160843  0.96069690  0.18860027    -0.12200
C332        C  0.37212703  0.94480202  0.19222685     0.04800
C333        C  0.35036845  0.95200747  0.16626461    -0.07500
C334        C  0.35745121  0.97729988  0.13969334    -0.08300
C335        C  0.38598816  0.99531755  0.13816809    -0.02800
C336        C  0.40851790  0.98592755  0.16215641     0.04000
N337        N  0.43782255  0.00366888  0.16149618     0.66500
H338        H  0.41896675  0.95552460  0.20781263     0.15400
H339        H  0.34021168  0.98384926  0.12077083     0.15100
N340        N  0.32053051  0.93554304  0.16744844     0.74200
O341        O  0.44452401  0.02629803  0.18496889    -0.39300
O342        O  0.45872405  0.99137987  0.14207553    -0.39200
O343        O  0.29734104  0.95524569  0.17296002    -0.39900
O344        O  0.31697295  0.90272233  0.15760954    -0.40000
C345        C  0.38840167  0.03435548  0.38736072    -0.12200
C346        C  0.36386170  0.00907723  0.38979323     0.04800
C347        C  0.34364072  0.01126853  0.41820728    -0.07500
C348        C  0.34857147  0.03773679  0.44381531    -0.08300
C349        C  0.37453082  0.06114997  0.44325690    -0.02800
C350        C  0.39403807  0.06006225  0.41388032     0.04000
N351        N  0.41995203  0.08415536  0.41088871     0.66500
H352        H  0.40388201  0.03329995  0.36531311     0.15400
H353        H  0.33302489  0.03773277  0.46582860     0.15100
N354        N  0.31854201  0.98599830  0.42230084     0.74200
O355        O  0.41640165  0.11670218  0.40025258    -0.39300
O356        O  0.44662351  0.07150584  0.41386972    -0.39200
O357        O  0.32378543  0.95218769  0.42658209    -0.39900
O358        O  0.29225317  0.99817822  0.42940325    -0.40000
C359        C  0.99346719  0.54581230  0.47832634    -0.12200
C360        C  0.01749606  0.52484225  0.46396635     0.04800
C361        C  0.51661971  0.48379911  0.46945843    -0.07500
C362        C  0.49204317  0.46740007  0.48728267    -0.08300
C363        C  0.46693598  0.48827292  0.49910207    -0.02800
C364        C  0.47137171  0.52564981  0.99772946     0.04000
N365        N  0.93923874  0.54710549  0.99523260     0.66500
H366        H  0.98850118  0.56951310  0.96197818     0.15400
H367        H  0.49219817  0.43780627  0.49092354     0.15100
N368        N  0.54043923  0.46110792  0.45581485     0.74200
O369        O  0.93482179  0.56006694  0.02508300    -0.39300
O370        O  0.43251914  0.56879430  0.99188776    -0.39200
O371        O  0.05611929  0.44375647  0.47045600    -0.39900
O372        O  0.54304886  0.45691025  0.42353839    -0.40000
C373        C  0.49786028  0.58679716  0.32577076    -0.12200
C374        C  0.50367931  0.60976804  0.35421562     0.04800
C375        C  0.47865877  0.62550847  0.37190610    -0.07500
C376        C  0.44890887  0.61727587  0.36158757    -0.08300
C377        C  0.44298114  0.59346396  0.33373605    -0.02800
C378        C  0.46791516  0.57810012  0.31562298     0.04000
N379        N  0.46363702  0.55471024  0.28637038     0.66500
H380        H  0.01666404  0.57770870  0.31017802     0.15400
H381        H  0.43015928  0.62948703  0.37597737     0.15100
N382        N  0.48282651  0.64962229  0.40064153     0.74200
O383        O  0.47860369  0.56135240  0.25893586    -0.39300
O384        O  0.45154068  0.52331566  0.29052120    -0.39200
O385        O  0.48412081  0.68394980  0.39566638    -0.39900
O386        O  0.47988234  0.63726497  0.43103984    -0.40000
C387        C  0.21324156  0.56677819  0.38271214    -0.12200
C388        C  0.19321054  0.59663735  0.38000072     0.04800
C389        C  0.20528524  0.63165326  0.37034101    -0.07500
C390        C  0.23617629  0.63546301  0.36161371    -0.08300
C391        C  0.25573547  0.60536369  0.36293885    -0.02800
C392        C  0.24431391  0.57084735  0.37420824     0.04000
N393        N  0.26330127  0.53899501  0.37413537     0.66500
H394        H  0.20456752  0.53972371  0.38980447     0.15400
H395        H  0.24484386  0.66209995  0.35314034     0.15100
N396        N  0.18644744  0.66354840  0.36808381     0.74200
O397        O  0.27375413  0.52701091  0.40226438    -0.39300
O398        O  0.26498332  0.51934861  0.34735623    -0.39200
O399        O  0.18024461  0.68161654  0.39502287    -0.39900
O400        O  0.18036839  0.67692548  0.33881971    -0.40000
C401        C  0.14869971  0.53581061  0.06223140    -0.12200
C402        C  0.12359546  0.51803932  0.07799027     0.04800
C403        C  0.09382641  0.52693458  0.06720070    -0.07500
C404        C  0.08968976  0.55139853  0.03954594    -0.08300
C405        C  0.11490572  0.56651019  0.02139492    -0.02800
C406        C  0.14470701  0.55923064  0.03362160     0.04000
N407        N  0.17118586  0.57375061  0.01615651     0.66500
H408        H  0.17156760  0.52989827  0.07091334     0.15400
H409        H  0.06663109  0.55610345  0.03048943     0.15100
N410        N  0.06756112  0.51036533  0.08344333     0.74200
O411        O  0.18283748  0.60373000  0.02613436    -0.39300
O412        O  0.18932005  0.55959758  0.49977197    -0.39200
O413        O  0.05546774  0.52556398  0.10942159    -0.39900
O414        O  0.05369921  0.48424171  0.06873409    -0.40000
C415        C  0.08712945  0.45908532  0.27667661    -0.12200
C416        C  0.11649424  0.44393826  0.27152019     0.04800
C417        C  0.13935687  0.45207837  0.29614333    -0.07500
C418        C  0.13344556  0.47774862  0.32254407    -0.08300
C419        C  0.10483636  0.49480621  0.32574074    -0.02800
C420        C  0.08118465  0.48422271  0.30336992     0.04000
N421        N  0.05155736  0.50048405  0.30601841     0.66500
H422        H  0.06900202  0.45317207  0.25852922     0.15400
H423        H  0.15166588  0.48529281  0.34005752     0.15100
N424        N  0.16914910  0.43617779  0.29370301     0.74200
O425        O  0.04144941  0.51914353  0.28109624    -0.39300
O426        O  0.03360549  0.49086582  0.33024190    -0.39200
O427        O  0.19254881  0.45668328  0.29122658    -0.39900
O428        O  0.17237117  0.40226761  0.29968048    -0.40000
C429        C  0.25370182  0.92926079  0.38148942    -0.12200
C430        C  0.26064223  0.89663111  0.36407804     0.04800
C431        C  0.23751297  0.87042139  0.35829559    -0.07500
C432        C  0.20727960  0.87927103  0.36652799    -0.08300
C433        C  0.19976066  0.91331193  0.38188404    -0.02800
C434        C  0.22372060  0.93748821  0.39116243     0.04000
N435        N  0.21859263  0.96977194  0.41122546     0.66500
H436        H  0.27150593  0.94938715  0.38632599     0.15400
H437        H  0.18961969  0.85913210  0.36083355     0.15100
N438        N  0.24449494  0.83472662  0.34467907     0.74200
O439        O  0.22975365  0.97120909  0.44113230    -0.39300
O440        O  0.21247316  0.99947800  0.39600561    -0.39200
O441        O  0.26609933  0.81628317  0.35730755    -0.39900
O442        O  0.22755992  0.82024757  0.32214219    -0.40000
C443        C  0.48756234  0.87506591  0.36195366    -0.12200
C444        C  0.50982569  0.90056703  0.35104398     0.04800
C445        C  0.50120353  0.92951559  0.32861946    -0.07500
C446        C  0.47041195  0.93378628  0.31960023    -0.08300
C447        C  0.44788168  0.90928383  0.33201196    -0.02800
C448        C  0.45698153  0.87895180  0.35270160     0.04000
N449        N  0.43531741  0.85275317  0.36625240     0.66500
H450        H  0.49369899  0.85245275  0.37881038     0.15400
H451        H  0.46406085  0.95689283  0.30347086     0.15100
N452        N  0.02245750  0.95525917  0.31549790     0.74200
O453        O  0.43167641  0.82217114  0.35141366    -0.39300
O454        O  0.42188086  0.85880426  0.39468251    -0.39200
O455        O  0.03925803  0.94470678  0.29077478    -0.39900
O456        O  0.01930893  0.98926705  0.32085448    -0.40000
C457        C  0.10647613  0.77821134  0.37558839    -0.12200
C458        C  0.10370743  0.79676741  0.40728773     0.04800
C459        C  0.10127516  0.77540815  0.43788368    -0.07500
C460        C  0.10011843  0.73678027  0.43601242    -0.08300
C461        C  0.10118527  0.71828072  0.40409166    -0.02800
C462        C  0.10499386  0.73968706  0.37359741     0.04000
N463        N  0.10637372  0.72316815  0.34010419     0.66500
H464        H  0.10864378  0.79374564  0.35170534     0.15400
H465        H  0.09745066  0.72126304  0.45984446     0.15100
N466        N  0.09877069  0.79233926  0.47106182     0.74200
O467        O  0.08181570  0.71363033  0.32556423    -0.39300
O468        O  0.13048975  0.72660633  0.32209420    -0.39200
O469        O  0.07291557  0.79459652  0.48573530    -0.39900
O470        O  0.12267860  0.79962189  0.48786331    -0.40000
C471        C  0.09151807  0.02383734  0.30297601    -0.12200
C472        C  0.11478397  0.01949559  0.32702704     0.04800
C473        C  0.14160777  0.04112894  0.32355821    -0.07500
C474        C  0.14535506  0.06518117  0.29514191    -0.08300
C475        C  0.12264185  0.06814498  0.26979653    -0.02800
C476        C  0.09487098  0.04820408  0.27500440     0.04000
N477        N  0.07051429  0.04968957  0.25067049     0.66500
H478        H  0.07165479  0.00746515  0.30499582     0.15400
H479        H  0.16692316  0.07951431  0.29174796     0.15100
N480        N  0.16648165  0.03658366  0.34676025     0.74200
O481        O  0.06373139  0.02133539  0.23353478    -0.39300
O482        O  0.05261757  0.07677727  0.25086053    -0.39200
O483        O  0.19245256  0.02784509  0.33493228    -0.39900
O484        O  0.16406892  0.04822953  0.37735403    -0.40000
C485        C  0.15841199  0.98805930  0.05309777    -0.12200
C486        C  0.13551343  0.99184915  0.07816436     0.04800
C487        C  0.10856741  0.97020583  0.07558396    -0.07500
C488        C  0.10398907  0.94777963  0.04634583    -0.08300
C489        C  0.12611816  0.94584701  0.01976325    -0.02800
C490        C  0.15428639  0.96505444  0.02450938     0.04000
N491        N  0.17837597  0.96528607  0.50127030     0.66500
H492        H  0.17925772  0.00435841  0.05492465     0.15400
H493        H  0.08236127  0.93328554  0.04366402     0.15100
N494        N  0.08501666  0.97210872  0.10149821     0.74200
O495        O  0.18447027  0.99435862  0.48452861    -0.39300
O496        O  0.19689847  0.93882439  0.50052929    -0.39200
O497        O  0.05742858  0.97563563  0.09271455    -0.39900
O498        O  0.09113323  0.96445053  0.13251554    -0.40000
C499        C  0.53023830  0.01433927  0.48964128    -0.12200
C500        C  0.02643466  0.99290940  0.46428771     0.04800
C501        C  0.99547199  0.98305755  0.45749796    -0.07500
C502        C  0.47178491  0.99716674  0.97447104    -0.08300
C503        C  0.47524809  0.02162879  0.49951053    -0.02800
C504        C  0.50602615  0.02822896  0.50953743     0.04000
N505        N  0.51311209  0.04772789  0.54060549     0.66500
H506        H  0.55353881  0.01825065  0.49842609     0.15400
H507        H  0.44853979  0.99215630  0.96594502     0.15100
N508        N  0.98715036  0.95913498  0.92818637     0.74200
O509        O  0.50163357  0.03709658  0.56903553    -0.39300
O510        O  0.53420230  0.07171347  0.54048128    -0.39200
O511        O  0.97353802  0.92924830  0.93531423    -0.39900
O512        O  0.98790888  0.97066349  0.89737727    -0.40000
O513        O  0.06311423  0.91439123  0.85114728    -0.85300
O514        O  0.11839417  0.95225236  0.84186033    -0.82400
C515        C  0.11224337  0.98514934  0.84981060     0.98100
O516        O  0.10277171  0.99252145  0.87975328    -0.82400
O517        O  0.07986044  0.98255041  0.94644967    -0.85100
C518        C  0.05187687  0.97183901  0.94588642     1.02700
O519        O  0.04500657  0.94095302  0.93395543    -0.77800
O520        O  0.04588150  0.88111291  0.89455951    -0.78000
C521        C  0.04108074  0.89836137  0.86637734     1.02600
O522        O  0.09592556  0.85172465  0.87813059    -0.85300
O523        O  0.14743564  0.89370905  0.87727362    -0.82400
C524        C  0.16645193  0.91859369  0.88454196     0.98200
O525        O  0.15736128  0.94975903  0.89558692    -0.82400
O526        O  0.13436864  0.93825987  0.95971575    -0.85000
C527        C  0.11735541  0.93104290  0.98501969     1.02600
O528        O  0.09128096  0.91652234  0.97941549    -0.77800
O529        O  0.09771079  0.85433009  0.93449844    -0.78000
C530        C  0.09918680  0.83563117  0.90707289     1.02600
Cr531      Cr  0.10552415  0.90434896  0.86483923     1.93700
Cr532      Cr  0.11716968  0.96310018  0.91948326     1.93200
Cr533      Cr  0.07227863  0.89936739  0.93386858     1.39100
O534        O  0.09833651  0.92263195  0.90614990    -1.23100
O535        O  0.04240680  0.63118424  0.89248486    -0.85300
O536        O  0.03830548  0.57184912  0.93353621    -0.82400
C537        C  0.04417375  0.54145896  0.94730984     0.98100
O538        O  0.07172237  0.52990107  0.94809010    -0.82400
O539        O  0.09493475  0.51765397  0.88193237    -0.85100
C540        C  0.10468856  0.52421147  0.85182718     1.02700
O541        O  0.11286066  0.55655805  0.84347188    -0.77800
O542        O  0.05940784  0.59647717  0.85051444    -0.78000
C543        C  0.03764550  0.61332249  0.86486355     1.02600
O544        O  0.09395016  0.65724294  0.93281975    -0.85300
O545        O  0.08437219  0.59661657  0.97876392    -0.82400
C546        C  0.10948277  0.58127858  0.98608875     0.98200
O547        O  0.12729667  0.57206027  0.96211401    -0.82400
O548        O  0.15116525  0.55874705  0.89803930    -0.85000
C549        C  0.16183051  0.58941019  0.88665462     1.02600
O550        O  0.14401918  0.61465667  0.87782349    -0.77800
O551        O  0.09404701  0.65858773  0.87639283    -0.78000
C552        C  0.09670273  0.67530638  0.90496204     1.02600
Cr553      Cr  0.06708321  0.61292205  0.93270052     1.93700
Cr554      Cr  0.11002545  0.54738102  0.92140655     1.93200
Cr555      Cr  0.10181265  0.60535172  0.86486607     1.39100
O556        O  0.09307952  0.58829239  0.90652244    -1.23100
O557        O  0.29634094  0.87532736  0.81558940    -0.85300
O558        O  0.29348522  0.93565425  0.77608331    -0.82400
C559        C  0.29976397  0.96698329  0.76415561     0.98100
O560        O  0.32752232  0.97881023  0.76416195    -0.82400
O561        O  0.35021394  0.98919224  0.83082441    -0.85100
C562        C  0.35901155  0.98134536  0.86082679     1.02700
O563        O  0.36609726  0.94854316  0.86821769    -0.77800
O564        O  0.31290606  0.90826027  0.85907386    -0.78000
C565        C  0.29134678  0.89193658  0.84391687     1.02600
O566        O  0.34897341  0.85100802  0.77519122    -0.85300
O567        O  0.34098811  0.91320874  0.73087960    -0.82400
C568        C  0.36659963  0.92874120  0.72489533     0.98200
O569        O  0.38337046  0.93688634  0.74985035    -0.82400
O570        O  0.40600654  0.94883761  0.81437500    -0.85000
C571        C  0.41581793  0.91799863  0.82566530     1.02600
O572        O  0.39745204  0.89194234  0.83135532    -0.77800
O573        O  0.34727482  0.84786650  0.83153575    -0.78000
C574        C  0.35076819  0.83211236  0.80256963     1.02600
Cr575      Cr  0.32226219  0.89510573  0.77626245     1.93700
Cr576      Cr  0.36540885  0.96062134  0.79060329     1.93200
Cr577      Cr  0.35528352  0.90051016  0.84476554     1.39100
O578        O  0.34751475  0.91920785  0.80382831    -1.23100
O579        O  0.31039021  0.59138746  0.86046844    -0.85300
O580        O  0.36488490  0.55332846  0.86630735    -0.82400
C581        C  0.35770191  0.52075745  0.85810617     0.98100
O582        O  0.34725077  0.51423731  0.82850945    -0.82400
O583        O  0.32336604  0.52727933  0.76247353    -0.85100
C584        C  0.29580037  0.53894090  0.76356604     1.02700
O585        O  0.28979835  0.56861681  0.77842771    -0.77800
O586        O  0.29333547  0.62724502  0.81948361    -0.78000
C587        C  0.28848423  0.60780462  0.84637768     1.02600
O588        O  0.34435880  0.65521713  0.83416685    -0.85300
O589        O  0.39484687  0.61209857  0.83153658    -0.82400
C590        C  0.41283918  0.58639791  0.82405385     0.98200
O591        O  0.40277339  0.55628385  0.81128032    -0.82400
O592        O  0.37852398  0.57023593  0.74759230    -0.85000
C593        C  0.36060025  0.57940640  0.72401815     1.02600
O594        O  0.33539476  0.59438932  0.73196148    -0.77800
O595        O  0.34496588  0.65421230  0.77776841    -0.78000
C596        C  0.34780090  0.67203388  0.80552742     1.02600
Cr597      Cr  0.35278188  0.60190440  0.84539916     1.93700
Cr598      Cr  0.36169104  0.54470112  0.78854902     1.93200
Cr599      Cr  0.31817060  0.60988878  0.77853217     1.39100
O600        O  0.34437679  0.58519398  0.80393718    -1.23100
O601        O  0.42573312  0.41525754  0.61320019    -0.85300
O602        O  0.37077438  0.45337662  0.61719182    -0.82400
C603        C  0.37780922  0.48581206  0.60783617     0.98100
O604        O  0.38771098  0.49202008  0.57777421    -0.82400
O605        O  0.41356394  0.47869366  0.51368065    -0.85100
C606        C  0.44138851  0.46864502  0.51648715     1.02700
O607        O  0.44792123  0.43930993  0.53169303    -0.77800
O608        O  0.44455766  0.37995906  0.57270176    -0.78000
C609        C  0.44831782  0.39887377  0.59993488     1.02600
O610        O  0.39269229  0.35100935  0.58671489    -0.85300
O611        O  0.34172555  0.39342654  0.58326446    -0.82400
C612        C  0.32353184  0.41759936  0.57276898     0.98200
O613        O  0.33371910  0.44821443  0.56099148    -0.82400
O614        O  0.36091445  0.43649151  0.99770989    -0.85000
C615        C  0.37947511  0.42756937  0.97451269     1.02600
O616        O  0.40464475  0.41288634  0.98287156    -0.77800
O617        O  0.39475384  0.35230682  0.53024914    -0.78000
C618        C  0.39127757  0.33423951  0.55798120     1.02600
Cr619      Cr  0.38355777  0.40440536  0.59742545     1.93700
Cr620      Cr  0.37500720  0.46029723  0.53902581     1.93200
Cr621      Cr  0.42059576  0.39713010  0.53121540     1.39100
O622        O  0.39296858  0.42092869  0.55584577    -1.23100
O623        O  0.45228666  0.13331624  0.56659141    -0.85300
O624        O  0.45587198  0.07300685  0.52760800    -0.82400
C625        C  0.44963469  0.04198405  0.51547035     0.98100
O626        O  0.42188769  0.03062879  0.51402080    -0.82400
O627        O  0.39971222  0.01757199  0.57981440    -0.85100
C628        C  0.39162973  0.02431376  0.61036298     1.02700
O629        O  0.38412206  0.05664200  0.61904016    -0.77800
O630        O  0.43610715  0.09904031  0.60977790    -0.78000
C631        C  0.45756639  0.11606519  0.59456002     1.02600
O632        O  0.39950539  0.15624481  0.52659821    -0.85300
O633        O  0.41080140  0.09135915  0.98229298    -0.82400
C634        C  0.38509033  0.07587391  0.97662853     0.98200
O635        O  0.36787863  0.06885548  0.00189877    -0.82400
O636        O  0.34345777  0.05725695  0.56561910    -0.85000
C637        C  0.33302966  0.08769810  0.57673094     1.02600
O638        O  0.35103377  0.11339592  0.58461929    -0.77800
O639        O  0.40016099  0.15901561  0.58313832    -0.78000
C640        C  0.39645379  0.17466366  0.55405459     1.02600
Cr641      Cr  0.42692565  0.11306769  0.52736443     1.93700
Cr642      Cr  0.38404687  0.04742884  0.54121305     1.93200
Cr643      Cr  0.39354599  0.10582359  0.59647418     1.39100
O644        O  0.40166308  0.08833660  0.55514409    -1.23100
O645        O  0.19324117  0.38207559  0.63814523    -0.85300
O646        O  0.19841339  0.44157141  0.67780860    -0.82400
C647        C  0.19299700  0.47190357  0.69173182     0.98100
O648        O  0.16546815  0.48337753  0.69405082    -0.82400
O649        O  0.13970989  0.49396775  0.62901974    -0.85100
C650        C  0.12836827  0.48684243  0.60001143     1.02700
O651        O  0.11960283  0.45440951  0.59336875    -0.77800
O652        O  0.17425819  0.41619906  0.59687123    -0.78000
C653        C  0.19672892  0.40001531  0.61008533     1.02600
O654        O  0.14399532  0.35500137  0.68263595    -0.85300
O655        O  0.15423900  0.41672305  0.72719567    -0.82400
C656        C  0.12918411  0.43180907  0.73578361     0.98200
O657        O  0.11085332  0.44093716  0.71260848    -0.82400
O658        O  0.08422517  0.45272383  0.65056216    -0.85000
C659        C  0.07334124  0.42160132  0.64100745     1.02600
O660        O  0.09101976  0.39645869  0.63116305    -0.77800
O661        O  0.14179062  0.35329164  0.62626122    -0.78000
C662        C  0.14108715  0.33656718  0.65518328     1.02600
Cr663      Cr  0.17006272  0.40013631  0.67996050     1.93700
Cr664      Cr  0.12631106  0.46504930  0.67037286     1.93200
Cr665      Cr  0.13252733  0.40630045  0.61465129     1.39100
O666        O  0.14279556  0.42399121  0.65528056    -1.23100
O667        O  0.18504002  0.09467160  0.60069545    -0.85300
O668        O  0.13097723  0.05538715  0.59503361    -0.82400
C669        C  0.13712321  0.02299603  0.60483979     0.98100
O670        O  0.14502915  0.01698255  0.63547304    -0.82400
O671        O  0.16989636  0.03180278  0.69977321    -0.85100
C672        C  0.19796302  0.04243730  0.69768781     1.02700
O673        O  0.20467583  0.07261022  0.68353513    -0.77800
O674        O  0.20199083  0.13109699  0.64125093    -0.78000
C675        C  0.20684673  0.11194064  0.61437498     1.02600
O676        O  0.15133348  0.15861325  0.62529894    -0.85300
O677        O  0.10065125  0.11542456  0.62758674    -0.82400
C678        C  0.08167859  0.09122372  0.63723467     0.98200
O679        O  0.09092379  0.06110379  0.65051877    -0.82400
O680        O  0.11523074  0.07708647  0.71303571    -0.85000
C681        C  0.13328841  0.08471815  0.73684363     1.02600
O682        O  0.15913467  0.09880633  0.72912807    -0.77800
O683        O  0.15059476  0.15846049  0.68180382    -0.78000
C684        C  0.14821925  0.17592262  0.65362894     1.02600
Cr685      Cr  0.14269337  0.10485679  0.61495682     1.93700
Cr686      Cr  0.13163883  0.04942447  0.67362483     1.93200
Cr687      Cr  0.17675578  0.11399539  0.68228150     1.39100
O688        O  0.15037314  0.08894530  0.65696233    -1.23100
C689        C  0.14436181  0.27653232  0.62426824    -0.12200
C690        C  0.14005230  0.29532972  0.65565698     0.04800
C691        C  0.13695804  0.27419538  0.68631313    -0.07500
C692        C  0.13879717  0.23551357  0.68502764    -0.08300
C693        C  0.14401663  0.21685833  0.65364802    -0.02800
C694        C  0.14655337  0.23810902  0.62297554     0.04000
N695        N  0.15274810  0.22144596  0.59026104     0.66500
H696        H  0.14709009  0.29179691  0.60029833     0.15400
H697        H  0.13665681  0.22007461  0.70896114     0.15100
N698        N  0.13226314  0.29143380  0.71905370     0.74200
O699        O  0.13087924  0.21337877  0.57052289    -0.39300
O700        O  0.17990538  0.22043087  0.57885477    -0.39200
O701        O  0.10556177  0.29339775  0.73164724    -0.39900
O702        O  0.15498282  0.29914954  0.73767693    -0.40000
C703        C  0.99423561  0.08601136  0.63390874    -0.12200
C704        C  0.48887883  0.11338503  0.60861490     0.04800
C705        C  0.01215092  0.13818657  0.60014814    -0.07500
C706        C  0.04208832  0.12980263  0.60951515    -0.08300
C707        C  0.04884863  0.09886631  0.63033735    -0.02800
C708        C  0.02421699  0.07730410  0.64336543     0.04000
N709        N  0.02877000  0.04620772  0.66551777     0.66500
H710        H  0.97588538  0.06811809  0.64262899     0.15400
H711        H  0.06021652  0.14764646  0.59971762     0.15100
N712        N  0.50935341  0.16288426  0.57062048     0.74200
O713        O  0.01321290  0.04343339  0.69309158    -0.39300
O714        O  0.04124674  0.01777418  0.65346094    -0.39200
O715        O  0.50654023  0.19551364  0.58117619    -0.39900
O716        O  0.51343733  0.15695193  0.53878599    -0.40000
C717        C  0.24633523  0.07504048  0.58388540    -0.12200
C718        C  0.23812794  0.10810408  0.60027304     0.04800
C719        C  0.26076221  0.13500440  0.60615765    -0.07500
C720        C  0.29110010  0.12789503  0.59726700    -0.08300
C721        C  0.29986456  0.09402893  0.58263662    -0.02800
C722        C  0.27693313  0.06769942  0.57523731     0.04000
N723        N  0.28428344  0.03303691  0.56007764     0.66500
H724        H  0.22915593  0.05395134  0.57928798     0.15400
H725        H  0.30796254  0.14912025  0.60262400     0.15100
N726        N  0.25337917  0.16973078  0.62123385     0.74200
O727        O  0.29047112  0.00602019  0.57930082    -0.39300
O728        O  0.27954622  0.02784194  0.52833082    -0.39200
O729        O  0.26047099  0.17619561  0.65218609    -0.39900
O730        O  0.24452467  0.19572511  0.60217128    -0.40000
C731        C  0.24757056  0.37339384  0.59894104    -0.12200
C732        C  0.22738207  0.40249797  0.59392817     0.04800
C733        C  0.23820262  0.43511347  0.57781163    -0.07500
C734        C  0.26938282  0.43898110  0.56950252    -0.08300
C735        C  0.29009289  0.41062338  0.57661881    -0.02800
C736        C  0.27849706  0.37687164  0.59016781     0.04000
N737        N  0.29793306  0.34632020  0.59702257     0.66500
H738        H  0.23947868  0.34800635  0.61085734     0.15400
H739        H  0.27754052  0.46493425  0.55884868     0.15100
N740        N  0.21844977  0.46571636  0.57247708     0.74200
O741        O  0.30458685  0.33852108  0.62784641    -0.39300
O742        O  0.30396429  0.32375199  0.57323528    -0.39200
O743        O  0.21984511  0.49300229  0.59250825    -0.39900
O744        O  0.20354638  0.46810137  0.54478438    -0.40000
C745        C  0.01974277  0.44497997  0.63816502    -0.12200
C746        C  0.03977644  0.41502146  0.63778406     0.04800
C747        C  0.02791450  0.37964901  0.62934502    -0.07500
C748        C  0.99786030  0.37609087  0.61732721    -0.08300
C749        C  0.47921929  0.40228317  0.61538035    -0.02800
C750        C  0.48974992  0.43564182  0.62991170     0.04000
N751        N  0.47027934  0.46685468  0.63235052     0.66500
H752        H  0.02810518  0.47210352  0.64504077     0.15400
H753        H  0.98940438  0.34922999  0.60964371     0.15100
N754        N  0.04596072  0.34705227  0.63293560     0.74200
O755        O  0.46154415  0.47761954  0.66177719    -0.39300
O756        O  0.46701284  0.48752505  0.60637160    -0.39200
O757        O  0.05832008  0.33973353  0.66149985    -0.39900
O758        O  0.04686414  0.32364291  0.60891763    -0.40000
C759        C  0.39561289  0.27527146  0.52537336    -0.12200
C760        C  0.38868306  0.29324700  0.55666979     0.04800
C761        C  0.38108438  0.27134929  0.58597783    -0.07500
C762        C  0.38208433  0.23285827  0.58371564    -0.08300
C763        C  0.39094373  0.21507219  0.55304960    -0.02800
C764        C  0.39686933  0.23677709  0.52332806     0.04000
N765        N  0.41439350  0.22024736  0.99184333     0.66500
H766        H  0.40624252  0.29089951  0.00172246     0.15400
H767        H  0.37690801  0.21678246  0.60673500     0.15100
N768        N  0.37276847  0.28728288  0.61849943     0.74200
O769        O  0.39828239  0.21538281  0.96532387    -0.39300
O770        O  0.44306676  0.21654501  0.98979866    -0.39200
O771        O  0.34717332  0.27898592  0.63197009    -0.39900
O772        O  0.39346639  0.30044280  0.63748444    -0.40000
C773        C  0.33953478  0.47008358  0.89739318    -0.12200
C774        C  0.36382383  0.49049218  0.88283357     0.04800
C775        C  0.39375718  0.48466423  0.89504533    -0.07500
C776        C  0.39876708  0.46002751  0.92235336    -0.08300
C777        C  0.37420789  0.44199113  0.93909066    -0.02800
C778        C  0.34430918  0.44675315  0.92593047     0.04000
N779        N  0.31831252  0.43018355  0.94273112     0.66500
H780        H  0.31648073  0.47420519  0.88820148     0.15400
H781        H  0.42174213  0.45758705  0.93244873     0.15100
N782        N  0.41920289  0.50490400  0.88096496     0.74200
O783        O  0.30321899  0.44843865  0.96465122    -0.39300
O784        O  0.30689579  0.40100446  0.93061252    -0.39200
O785        O  0.43238037  0.52900938  0.89908001    -0.39900
O786        O  0.43168980  0.49426767  0.85324530    -0.40000
C787        C  0.39918086  0.53075446  0.64910827    -0.12200
C788        C  0.37367078  0.51644925  0.63224610     0.04800
C789        C  0.34433834  0.52921641  0.64131567    -0.07500
C790        C  0.34085150  0.55391093  0.66889844    -0.08300
C791        C  0.36625879  0.56531486  0.68845208    -0.02800
C792        C  0.39582101  0.55432334  0.67744105     0.04000
N793        N  0.42246563  0.56376020  0.69667761     0.66500
H794        H  0.42179802  0.52194544  0.64148469     0.15400
H795        H  0.31789352  0.56148965  0.67685994     0.15100
N796        N  0.31783688  0.51627895  0.62351406     0.74200
O797        O  0.43791952  0.53847507  0.71031435    -0.39300
O798        O  0.43356802  0.59587000  0.69453519    -0.39200
O799        O  0.30149992  0.49086734  0.63650701    -0.39900
O800        O  0.30866719  0.53330072  0.59713051    -0.40000
C801        C  0.24207863  0.54011407  0.74202589    -0.12200
C802        C  0.26995393  0.52078368  0.74512344     0.04800
C803        C  0.27250976  0.48643975  0.72882996    -0.07500
C804        C  0.24761954  0.47208514  0.71048712    -0.08300
C805        C  0.21952861  0.49109452  0.70797348    -0.02800
C806        C  0.21719679  0.52577710  0.72370637     0.02400
N807        N  0.18987740  0.54695996  0.72130312     0.66500
H808        H  0.23942168  0.56699371  0.75365932     0.15400
H809        H  0.25023390  0.44516098  0.69893553     0.15100
N810        N  0.29969872  0.46508761  0.73167384     0.74200
O811        O  0.17133127  0.54774798  0.74651603    -0.39300
O812        O  0.18682725  0.56933756  0.69657044    -0.39200
O813        O  0.30182075  0.44150917  0.75554530    -0.39900
O814        O  0.31970854  0.46630400  0.70792725    -0.40000
C815        C  0.24530933  0.96929433  0.74385536    -0.12200
C816        C  0.27383115  0.98761581  0.74814733     0.04800
C817        C  0.27698558  0.02361934  0.73498867    -0.07500
C818        C  0.25229950  0.04024889  0.71811733    -0.08300
C819        C  0.22380895  0.02193773  0.71388140    -0.02800
C820        C  0.22072462  0.98580394  0.72665182     0.04000
N821        N  0.19333820  0.96487665  0.72105043     0.66500
H822        H  0.24216669  0.94126976  0.75296111     0.15400
H823        H  0.25546025  0.06821332  0.70884687     0.15100
N824        N  0.30487569  0.04398606  0.73894515     0.74200
O825        O  0.18631700  0.95505893  0.69085109    -0.39300
O826        O  0.17662969  0.95518191  0.74633876    -0.39200
O827        O  0.32194702  0.05032737  0.71304849    -0.39900
O828        O  0.31200613  0.05666102  0.76814723    -0.40000
C829        C  0.35487733  0.77228421  0.83363822    -0.12200
C830        C  0.35411777  0.79122745  0.80188500     0.04800
C831        C  0.35428447  0.77034538  0.77109197    -0.07500
C832        C  0.35349696  0.73164809  0.77275321    -0.08300
C833        C  0.35247456  0.71284003  0.80468347    -0.02800
C834        C  0.35399748  0.73384595  0.83535294     0.04000
N835        N  0.35356242  0.71682619  0.86872926     0.66500
H836        H  0.35523338  0.78736846  0.85775034     0.15400
H837        H  0.35272462  0.71633250  0.74879084     0.15100
N838        N  0.35429877  0.78779723  0.73793007     0.74200
O839        O  0.37846461  0.70880407  0.88309147    -0.39300
O840        O  0.32887928  0.71527310  0.88595266    -0.39200
O841        O  0.37911824  0.79152000  0.72124201    -0.39900
O842        O  0.32923499  0.79395480  0.72310385    -0.40000
C843        C  0.40441089  0.96022788  0.68614074    -0.12200
C844        C  0.37523048  0.94372498  0.69012062     0.04800
C845        C  0.35319051  0.95012276  0.66423506    -0.07500
C846        C  0.35967892  0.97521835  0.63735959    -0.08300
C847        C  0.38793641  0.99377984  0.63535034    -0.02800
C848        C  0.41082598  0.98517691  0.65925065     0.04000
N849        N  0.43999566  0.00330574  0.65795162     0.66500
H850        H  0.42189585  0.95560517  0.70533208     0.15400
H851        H  0.34203280  0.98145003  0.61877093     0.15100
N852        N  0.32339547  0.93360331  0.66615515     0.74200
O853        O  0.44919993  0.02101905  0.68391424    -0.39300
O854        O  0.45846046  0.99651117  0.63353459    -0.39200
O855        O  0.30023082  0.95339167  0.67154328    -0.39900
O856        O  0.31980438  0.90045804  0.65732225    -0.40000
C857        C  0.39069928  0.03134423  0.88721647    -0.12200
C858        C  0.36329590  0.01073000  0.88694490     0.04800
C859        C  0.34155922  0.01651111  0.91329658    -0.07500
C860        C  0.34794315  0.04111061  0.94017780    -0.08300
C861        C  0.37638632  0.05978597  0.94231469    -0.02800
C862        C  0.39739052  0.05574790  0.91449262     0.04000
N863        N  0.42610724  0.07485649  0.91417996     0.66500
H864        H  0.40756960  0.02735710  0.86685453     0.15400
H865        H  0.33111206  0.04356727  0.96080268     0.15100
N866        N  0.31358837  0.99590094  0.91431072     0.74200
O867        O  0.42793814  0.10660538  0.90095559    -0.39300
O868        O  0.45030030  0.05777106  0.92122628    -0.39200
O869        O  0.31225170  0.96627340  0.93141309    -0.39900
O870        O  0.28914420  0.01090192  0.90465630    -0.40000
C871        C  0.99063914  0.54124443  0.97058123    -0.12200
C872        C  0.01816307  0.52182568  0.96473761     0.04800
C873        C  0.52072065  0.48225550  0.97407438    -0.07500
C874        C  0.49513308  0.46607109  0.99034832    -0.08300
C875        C  0.47002716  0.48732798  0.00179030    -0.02800
C876        C  0.46671159  0.52631201  0.49296735     0.04000
N877        N  0.94643350  0.55146187  0.51267364     0.66500
H878        H  0.99422566  0.57559890  0.47685963     0.15400
H879        H  0.49460555  0.43638087  0.99316209     0.15100
N880        N  0.54486618  0.45932545  0.96170689     0.74200
O881        O  0.94469379  0.55205629  0.54526665    -0.39300
O882        O  0.42575199  0.56623961  0.48540098    -0.39200
O883        O  0.06375360  0.45499071  0.99648405    -0.39900
O884        O  0.54612842  0.45077562  0.93013308    -0.40000
C885        C  0.50003126  0.58591279  0.82638183    -0.12200
C886        C  0.50548913  0.60646523  0.85649303     0.04800
C887        C  0.48019669  0.62015093  0.87529110    -0.07500
C888        C  0.45056748  0.61260717  0.86412408    -0.08300
C889        C  0.44507863  0.59146286  0.83439704    -0.02800
C890        C  0.47020740  0.57794120  0.81542608     0.04000
N891        N  0.46613656  0.55767481  0.78423130     0.66500
H892        H  0.01871101  0.56655634  0.81545392     0.15400
H893        H  0.43156955  0.62325459  0.87921473     0.15100
N894        N  0.48395944  0.64144625  0.90598665     0.74200
O895        O  0.47824772  0.56973434  0.75663620    -0.39300
O896        O  0.45762860  0.52442768  0.78586503    -0.39200
O897        O  0.48465141  0.67611789  0.90398237    -0.39900
O898        O  0.48108722  0.62614346  0.93518804    -0.40000
C899        C  0.21511436  0.56538309  0.88223775    -0.12200
C900        C  0.19519245  0.59543631  0.88090643     0.04800
C901        C  0.20716951  0.63037684  0.87069955    -0.07500
C902        C  0.23774499  0.63391503  0.86020737    -0.08300
C903        C  0.25719128  0.60362883  0.86042375    -0.02800
C904        C  0.24585306  0.56917612  0.87203030     0.04000
N905        N  0.26461772  0.53716291  0.87112899     0.66500
H906        H  0.20653269  0.53836903  0.88960366     0.15400
H907        H  0.24631347  0.66056733  0.85166193     0.15100
N908        N  0.18858806  0.66258855  0.87017224     0.74200
O909        O  0.27282608  0.52245382  0.89909675    -0.39300
O910        O  0.26836634  0.52014046  0.84303839    -0.39200
O911        O  0.18482372  0.68092916  0.89750607    -0.39900
O912        O  0.18035698  0.67594444  0.84160837    -0.40000
C913        C  0.14826618  0.53599480  0.55987839    -0.12200
C914        C  0.12334280  0.51648447  0.57430250     0.04800
C915        C  0.09359573  0.52421619  0.56260309    -0.07500
C916        C  0.08930884  0.54985682  0.53597817    -0.08300
C917        C  0.11436738  0.56720775  0.51946123    -0.02800
C918        C  0.14408299  0.56074647  0.53224630     0.04000
N919        N  0.17024989  0.57833993  0.51679405     0.66500
H920        H  0.17118054  0.53081163  0.56901055     0.15400
H921        H  0.06635480  0.55376264  0.52625506     0.15100
N922        N  0.06748059  0.50544476  0.57689605     0.74200
O923        O  0.17662728  0.61123625  0.52444428    -0.39300
O924        O  0.18614247  0.55348623  0.99576160    -0.39200
O925        O  0.05056180  0.52180936  0.59842330    -0.39900
O926        O  0.05796284  0.47622341  0.56293021    -0.40000
C927        C  0.09231484  0.45471430  0.78010190    -0.12200
C928        C  0.12268970  0.44499438  0.77167735     0.04800
C929        C  0.14643320  0.45749115  0.79356695    -0.07500
C930        C  0.13967688  0.48225197  0.82044679    -0.08300
C931        C  0.10961157  0.49378154  0.82705970    -0.02800
C932        C  0.08561580  0.47866185  0.80754121     0.04000
N933        N  0.05464452  0.48970998  0.81331280     0.66500
H934        H  0.07369769  0.44550120  0.76385086     0.15400
H935        H  0.15820621  0.49337175  0.83579036     0.15100
N936        N  0.17767553  0.44731317  0.78766184     0.74200
O937        O  0.04034498  0.50569955  0.78945721    -0.39300
O938        O  0.04003112  0.47745136  0.83926768    -0.39200
O939        O  0.19846409  0.47167482  0.78748511    -0.39900
O940        O  0.18505014  0.41383641  0.78917765    -0.40000
C941        C  0.25346475  0.92422956  0.88002451    -0.12200
C942        C  0.26009901  0.89456103  0.85820953     0.04800
C943        C  0.23616909  0.87129270  0.84741628    -0.07500
C944        C  0.20603462  0.87999820  0.85643288    -0.08300
C945        C  0.19912211  0.91087125  0.87713324    -0.02800
C946        C  0.22348580  0.93250549  0.88980780     0.04000
N947        N  0.21876472  0.96227834  0.91325849     0.66500
H948        H  0.27164072  0.94223716  0.88857438     0.15400
H949        H  0.18791852  0.86216093  0.84713111     0.15100
N950        N  0.24207091  0.83855015  0.82790367     0.74200
O951        O  0.23254515  0.96185000  0.94177038    -0.39300
O952        O  0.20920852  0.99258434  0.90183984    -0.39200
O953        O  0.26098071  0.81523571  0.83885014    -0.39900
O954        O  0.22634699  0.83116554  0.80157441    -0.40000
C955        C  0.48810758  0.87719472  0.86413202    -0.12200
C956        C  0.51041576  0.90298826  0.85402486     0.04800
C957        C  0.50166966  0.93309390  0.83306332    -0.07500
C958        C  0.47102046  0.93721639  0.82333438    -0.08300
C959        C  0.44849052  0.91207610  0.83449324    -0.02800
C960        C  0.45747544  0.88155632  0.85508995     0.04000
N961        N  0.43563578  0.85569013  0.86887597     0.66500
H962        H  0.49421891  0.85409016  0.88040053     0.15400
H963        H  0.46472148  0.96090350  0.80793934     0.15100
N964        N  0.02537074  0.93965973  0.80235840     0.74200
O965        O  0.43418849  0.82352169  0.85677203    -0.39300
O966        O  0.42009067  0.86375108  0.89543549    -0.39200
O967        O  0.03775512  0.92055646  0.77898788    -0.39900
O968        O  0.02954961  0.97404874  0.80251463    -0.40000
C969        C  0.10389885  0.77583364  0.87629098    -0.12200
C970        C  0.10214907  0.79468167  0.90790737     0.04800
C971        C  0.10083446  0.77368896  0.93878735    -0.07500
C972        C  0.10012648  0.73501043  0.93732077    -0.08300
C973        C  0.10042792  0.71625326  0.90551875    -0.02800
C974        C  0.10269281  0.73737956  0.87471948     0.04000
N975        N  0.10235327  0.72058971  0.84133869     0.66500
H976        H  0.10500301  0.79104079  0.85214922     0.15400
H977        H  0.09848572  0.71965275  0.96134314     0.15100
N978        N  0.09910558  0.79101865  0.97183857     0.74200
O979        O  0.07701697  0.71256770  0.82772123    -0.39300
O980        O  0.12627851  0.72132632  0.82277957    -0.39200
O981        O  0.07367537  0.79292903  0.98749136    -0.39900
O982        O  0.12341306  0.79908533  0.98758238    -0.40000
C983        C  0.09277402  0.03254466  0.80917072    -0.12200
C984        C  0.11772699  0.01514029  0.82443990     0.04800
C985        C  0.14767810  0.02680286  0.81520109    -0.07500
C986        C  0.15204066  0.05382351  0.78956456    -0.08300
C987        C  0.12716262  0.06856822  0.77165864    -0.02800
C988        C  0.09717962  0.05861446  0.78263224     0.04000
N989        N  0.07094850  0.07316193  0.76579153     0.66500
H990        H  0.06971067  0.02485673  0.81695188     0.15400
H991        H  0.17524289  0.06053993  0.78136174     0.15100
N992        N  0.17406204  0.01095176  0.83079928     0.74200
O993        O  0.05405682  0.05203448  0.74838463    -0.39300
O994        O  0.06163046  0.10488540  0.77352231    -0.39200
O995        O  0.18023011  0.97762449  0.82522637    -0.39900
O996        O  0.19463387  0.03191299  0.84256728    -0.40000
C997        C  0.15799732  0.98880193  0.55508943    -0.12200
C998        C  0.13482417  0.99237322  0.57984122     0.04800
C999        C  0.10819024  0.97023040  0.57714083    -0.07500
C1000       C  0.10417802  0.94745240  0.54807046    -0.08300
C1001       C  0.12650365  0.94584870  0.52169202    -0.02800
C1002       C  0.15440173  0.96557993  0.52658031     0.04000
N1003       N  0.17831446  0.96383933  0.99931045     0.66500
H1004       H  0.17860541  0.00551930  0.55704279     0.15400
H1005       H  0.08273520  0.93259533  0.54523929     0.15100
N1006       N  0.08431892  0.97206097  0.60265645     0.74200
O1007       O  0.18310641  0.99146590  0.98006979    -0.39300
O1008       O  0.19849933  0.93934449  0.00168129    -0.39200
O1009       O  0.05683353  0.97530986  0.59338445    -0.39900
O1010       O  0.09006683  0.96438945  0.63376333    -0.40000
C1011       C  0.53231493  0.01248781  0.99352557    -0.12200
C1012       C  0.02647055  0.99275855  0.96221027     0.04800
C1013       C  0.99539286  0.98340458  0.95555077    -0.07500
C1014       C  0.46962890  0.00086743  0.46989559    -0.08300
C1015       C  0.47715063  0.01868124  0.00354567    -0.02800
C1016       C  0.50784745  0.02588948  0.01346246     0.04000
N1017       N  0.51450109  0.04504049  0.04477710     0.66500
H1018       H  0.55557928  0.01706402  0.00215658     0.15400
H1019       H  0.44636435  0.99680567  0.46103561     0.15100
N1020       N  0.98757878  0.95834735  0.43031990     0.74200
O1021       O  0.50449644  0.03236382  0.07315819    -0.39300
O1022       O  0.53410991  0.07077052  0.04475431    -0.39200
O1023       O  0.97627896  0.92718028  0.43772131    -0.39900
O1024       O  0.98560992  0.97053914  0.39986049    -0.40000
O1025       O  0.56319235  0.91411873  0.35111296    -0.85300
O1026       O  0.61851430  0.95178207  0.34307129    -0.82400
C1027       C  0.61156132  0.98458686  0.35035598     0.98100
O1028       O  0.60110476  0.99200247  0.37987574    -0.82400
O1029       O  0.57778439  0.98249196  0.44619131    -0.85100
C1030       C  0.54989685  0.97177908  0.44499428     1.02700
O1031       O  0.54310954  0.94058923  0.43369953    -0.77800
O1032       O  0.54494628  0.88100808  0.39425146    -0.78000
C1033       C  0.54085452  0.89835402  0.36597805     1.02600
O1034       O  0.59526006  0.85148879  0.37883675    -0.85300
O1035       O  0.64671044  0.89370039  0.37982549    -0.82400
C1036       C  0.66537096  0.91911630  0.38667955     0.98200
O1037       O  0.65586461  0.95025253  0.39719602    -0.82400
O1038       O  0.63207757  0.93934094  0.46128842    -0.85000
C1039       C  0.61491466  0.93103327  0.48625386     1.02600
O1040       O  0.58904942  0.91615492  0.48009659    -0.77800
O1041       O  0.59605253  0.85382873  0.43521868    -0.78000
C1042       C  0.59807555  0.83523531  0.40773490     1.02600
Cr1043     Cr  0.60517533  0.90406498  0.36594331     1.93700
Cr1044     Cr  0.61533073  0.96328030  0.42025316     1.93200
Cr1045     Cr  0.57061946  0.89906410  0.43416135     1.39100
O1046       O  0.59707283  0.92242451  0.40697892    -1.23100
O1047       O  0.54142163  0.63186418  0.39379111    -0.85300
O1048       O  0.53704880  0.57264937  0.43446183    -0.82400
C1049       C  0.54264768  0.54170573  0.44716938     0.98100
O1050       O  0.56997219  0.52954407  0.44782571    -0.82400
O1051       O  0.59222109  0.51702895  0.38200898    -0.85100
C1052       C  0.60147067  0.52331377  0.35171057     1.02700
O1053       O  0.60969291  0.55554491  0.34300177    -0.77800
O1054       O  0.55678048  0.59646786  0.35165475    -0.78000
C1055       C  0.53548520  0.61337777  0.36686598     1.02600
O1056       O  0.59399458  0.65659679  0.43308306    -0.85300
O1057       O  0.58389506  0.59578445  0.47913335    -0.82400
C1058       C  0.60876004  0.57966523  0.48599834     0.98200
O1059       O  0.62625598  0.57049696  0.46172960    -0.82400
O1060       O  0.64904364  0.55711566  0.39739722    -0.85000
C1061       C  0.65981668  0.58770973  0.38610907     1.02600
O1062       O  0.64221863  0.61295044  0.37667119    -0.77800
O1063       O  0.59292831  0.65801480  0.37664397    -0.78000
C1064       C  0.59621844  0.67470461  0.40518321     1.02600
Cr1065     Cr  0.56641039  0.61290366  0.43340747     1.93700
Cr1066     Cr  0.60816814  0.54640446  0.42113744     1.93200
Cr1067     Cr  0.59967264  0.60457230  0.36475618     1.39100
O1068       O  0.59158370  0.58770898  0.40664260    -1.23100
O1069       O  0.79556645  0.87626611  0.31844750    -0.85300
O1070       O  0.79281830  0.93699456  0.27981314    -0.82400
C1071       C  0.79917936  0.96812512  0.26759719     0.98100
O1072       O  0.82688425  0.98004174  0.26766219    -0.82400
O1073       O  0.84888680  0.98969551  0.33451316    -0.85100
C1074       C  0.85782829  0.98191739  0.36444292     1.02700
O1075       O  0.86488846  0.94908117  0.37189740    -0.77800
O1076       O  0.81179609  0.90872329  0.36230678    -0.78000
C1077       C  0.79032835  0.89265530  0.34679789     1.02600
O1078       O  0.84783430  0.85226286  0.27800568    -0.85300
O1079       O  0.84037069  0.91511312  0.23429549    -0.82400
C1080       C  0.86600355  0.93070289  0.22844886     0.98200
O1081       O  0.88281867  0.93838051  0.25349630    -0.82400
O1082       O  0.90478671  0.94975164  0.31843347    -0.85000
C1083       C  0.91462403  0.91899689  0.32983671     1.02600
O1084       O  0.89651877  0.89256591  0.33516152    -0.77800
O1085       O  0.84624055  0.84819767  0.33439029    -0.78000
C1086       C  0.84900935  0.83280951  0.30509477     1.02600
Cr1087     Cr  0.82144889  0.89643511  0.27943456     1.93700
Cr1088     Cr  0.86451617  0.96163419  0.29434277     1.93200
Cr1089     Cr  0.85422825  0.90098032  0.34817067     1.39100
O1090       O  0.84670197  0.92004441  0.30724125    -1.23100
O1091       O  0.80859734  0.59188007  0.36258315    -0.85300
O1092       O  0.86368253  0.55494111  0.36775871    -0.82400
C1093       C  0.85658061  0.52216127  0.36019735     0.98100
O1094       O  0.84538846  0.51519998  0.33107924    -0.82400
O1095       O  0.82046015  0.52651525  0.26564096    -0.85100
C1096       C  0.79278053  0.53772742  0.26700990     1.02700
O1097       O  0.78673955  0.56793055  0.28090459    -0.77800
O1098       O  0.79055786  0.62694745  0.32146464    -0.78000
C1099       C  0.78635134  0.60773834  0.34863812     1.02600
O1100       O  0.84126165  0.65603715  0.33507865    -0.85300
O1101       O  0.89213522  0.61385032  0.33151615    -0.82400
C1102       C  0.91035798  0.58841321  0.32399952     0.98200
O1103       O  0.90039727  0.55780414  0.31214751    -0.82400
O1104       O  0.87510602  0.56990135  0.24877632    -0.85000
C1105       C  0.85685999  0.57845967  0.22533695     1.02600
O1106       O  0.83162965  0.59339175  0.23340833    -0.77800
O1107       O  0.84115776  0.65440762  0.27864813    -0.78000
C1108       C  0.84430524  0.67254649  0.30623906     1.02600
Cr1109     Cr  0.85053553  0.60300257  0.34655266     1.93700
Cr1110     Cr  0.85905484  0.54505161  0.29045425     1.93200
Cr1111     Cr  0.81485876  0.60952245  0.28017363     1.39100
O1112       O  0.84162128  0.58557551  0.30546995    -1.23100
O1113       O  0.92464408  0.41296690  0.11179106    -0.85300
O1114       O  0.87029870  0.45205284  0.11764595    -0.82400
C1115       C  0.87743249  0.48472776  0.10924121     0.98100
O1116       O  0.88817738  0.49158953  0.07962712    -0.82400
O1117       O  0.91354769  0.47996934  0.01445189    -0.85100
C1118       C  0.94121895  0.46894796  0.01665474     1.02700
O1119       O  0.94690679  0.43855726  0.03046008    -0.77800
O1120       O  0.94211658  0.37843031  0.07019858    -0.78000
C1121       C  0.94682581  0.39681842  0.09755230     1.02600
O1122       O  0.89047540  0.35028667  0.08406938    -0.85300
O1123       O  0.84038482  0.39423909  0.08229444    -0.82400
C1124       C  0.82275692  0.42033724  0.07521858     0.98200
O1125       O  0.83311044  0.45036783  0.06224709    -0.82400
O1126       O  0.86112241  0.43461443  0.49719398    -0.85000
C1127       C  0.88032273  0.42665449  0.47428695     1.02600
O1128       O  0.90594885  0.41359178  0.48312404    -0.77800
O1129       O  0.89178472  0.35301177  0.02761622    -0.78000
C1130       C  0.88843052  0.33429088  0.05498913     1.02600
Cr1131     Cr  0.88232685  0.40354483  0.09624387     1.93700
Cr1132     Cr  0.87456155  0.46190846  0.03972134     1.93200
Cr1133     Cr  0.91846276  0.39727717  0.02940482     1.39100
O1134       O  0.89160632  0.42119025  0.05498000    -1.23100
O1135       O  0.95236081  0.13506845  0.06715575    -0.85300
O1136       O  0.95753638  0.07391062  0.02973538    -0.82400
C1137       C  0.95204186  0.04222716  0.01871990     0.98100
O1138       O  0.92456123  0.02977485  0.01823478    -0.82400
O1139       O  0.90249054  0.01991637  0.08478309    -0.85100
C1140       C  0.89274253  0.02743964  0.11453822     1.02700
O1141       O  0.88400878  0.05977291  0.12142245    -0.77800
O1142       O  0.93602385  0.10232969  0.11139766    -0.78000
C1143       C  0.95754753  0.11866157  0.09561316     1.02600
O1144       O  0.89956038  0.15583360  0.02580130    -0.85300
O1145       O  0.90967369  0.09519409  0.48338013    -0.82400
C1146       C  0.88417630  0.07914064  0.47789508     0.98200
O1147       O  0.86734364  0.07154451  0.50328475    -0.82400
O1148       O  0.84499079  0.05680432  0.06789643    -0.85000
C1149       C  0.83387778  0.08765438  0.07723290     1.02600
O1150       O  0.85135017  0.11429034  0.08384999    -0.77800
O1151       O  0.89997413  0.16065600  0.08214612    -0.78000
C1152       C  0.89587192  0.17511520  0.05262784     1.02600
Cr1153     Cr  0.92763429  0.11315280  0.02821983     1.93700
Cr1154     Cr  0.88617681  0.04663628  0.04442802     1.93200
Cr1155     Cr  0.89362113  0.10798638  0.09708456     1.39100
O1156       O  0.90254828  0.08893494  0.05653137    -1.23100
O1157       O  0.69126536  0.37840826  0.14269793    -0.85300
O1158       O  0.69546656  0.43716101  0.18390276    -0.82400
C1159       C  0.68954396  0.46717076  0.19824677     0.98100
O1160       O  0.66192073  0.47854315  0.19969385    -0.82400
O1161       O  0.63817547  0.49139608  0.13422438    -0.85100
C1162       C  0.62875302  0.48505319  0.10420233     1.02700
O1163       O  0.62052685  0.45283208  0.09592263    -0.77800
O1164       O  0.67458035  0.41381435  0.10134631    -0.78000
C1165       C  0.69641441  0.39731270  0.11550846     1.02600
O1166       O  0.64033705  0.35131043  0.18435153    -0.85300
O1167       O  0.64979022  0.41167150  0.23065774    -0.82400
C1168       C  0.62450065  0.42655850  0.23849856     0.98200
O1169       O  0.60668176  0.43521050  0.21468810    -0.82400
O1170       O  0.58232193  0.44923115  0.15184338    -0.85000
C1171       C  0.57188807  0.41848294  0.14079287     1.02600
O1172       O  0.58988504  0.39387602  0.13056494    -0.77800
O1173       O  0.64033107  0.35044303  0.12784558    -0.78000
C1174       C  0.63822255  0.33334654  0.15653780     1.02600
Cr1175     Cr  0.66690088  0.39591430  0.18379769     1.93700
Cr1176     Cr  0.62353301  0.46093475  0.17391984     1.93200
Cr1177     Cr  0.63208514  0.40390316  0.11671322     1.39100
O1178       O  0.64070235  0.42051022  0.15832153    -1.23100
O1179       O  0.68566914  0.09257289  0.10067814    -0.85300
O1180       O  0.63200203  0.05259610  0.09499353    -0.82400
C1181       C  0.63803729  0.02027450  0.10508660     0.98100
O1182       O  0.64577581  0.01450716  0.13582863    -0.82400
O1183       O  0.67067009  0.03031733  0.20000021    -0.85100
C1184       C  0.69860014  0.04159152  0.19837357     1.02700
O1185       O  0.70529994  0.07160379  0.18391570    -0.77800
O1186       O  0.70207056  0.12963998  0.14098388    -0.78000
C1187       C  0.70724813  0.11027709  0.11429423     1.02600
O1188       O  0.65110091  0.15634550  0.12488687    -0.85300
O1189       O  0.60113810  0.11239964  0.12711410    -0.82400
C1190       C  0.58218879  0.08829606  0.13695388     0.98200
O1191       O  0.59137347  0.05829109  0.15058118    -0.82400
O1192       O  0.61570297  0.07489502  0.21327847    -0.85000
C1193       C  0.63382136  0.08307181  0.23691917     1.02600
O1194       O  0.65951677  0.09733399  0.22898059    -0.77800
O1195       O  0.64991047  0.15591333  0.18135016    -0.78000
C1196       C  0.64698050  0.17330440  0.15325656     1.02600
Cr1197     Cr  0.64320407  0.10230354  0.11472241     1.93700
Cr1198     Cr  0.63224606  0.04718332  0.17380166     1.93200
Cr1199     Cr  0.67689456  0.11237052  0.18208715     1.39100
O1200       O  0.65084491  0.08670009  0.15685884    -1.23100
C1201       C  0.63673747  0.27348665  0.12484020    -0.12200
C1202       C  0.63645452  0.29216132  0.15666445     0.04800
C1203       C  0.63698735  0.27089678  0.18737820    -0.07500
C1204       C  0.63931759  0.23237191  0.18564642    -0.08300
C1205       C  0.64110554  0.21387545  0.15374817    -0.02800
C1206       C  0.63893007  0.23503491  0.12309385     0.04000
N1207       N  0.63954568  0.21816208  0.08978248     0.66500
H1208       H  0.63597585  0.28884644  0.10080287     0.15400
H1209       H  0.64051782  0.21697566  0.20963129     0.15100
N1210       N  0.63603126  0.28786677  0.22063264     0.74200
O1211       O  0.61499390  0.20619971  0.07685549    -0.39300
O1212       O  0.66347175  0.22027823  0.07128251    -0.39200
O1213       O  0.61073461  0.29105014  0.23634708    -0.39900
O1214       O  0.66064354  0.29424987  0.23644190    -0.40000
C1215       C  0.49488386  0.08291970  0.13302722    -0.12200
C1216       C  0.98890880  0.11570758  0.10929111     0.04800
C1217       C  0.51292919  0.13527868  0.09948765    -0.07500
C1218       C  0.54276767  0.12717311  0.10933124    -0.08300
C1219       C  0.54944540  0.09609017  0.12995501    -0.02800
C1220       C  0.52487404  0.07426735  0.14245664     0.04000
N1221       N  0.52969582  0.04275112  0.16384207     0.66500
H1222       H  0.47652446  0.06492355  0.14166775     0.15400
H1223       H  0.56090370  0.14517731  0.09981449     0.15100
N1224       N  0.00836729  0.16802826  0.07419574     0.74200
O1225       O  0.51919686  0.04257878  0.19433387    -0.39300
O1226       O  0.53644284  0.01255737  0.14986096    -0.39200
O1227       O  0.00249017  0.19899203  0.08723452    -0.39900
O1228       O  0.01444724  0.16575779  0.04231501    -0.40000
C1229       C  0.74733791  0.07337653  0.08473774    -0.12200
C1230       C  0.73861652  0.10671518  0.10029997     0.04800
C1231       C  0.76083276  0.13427346  0.10549002    -0.07500
C1232       C  0.79132348  0.12747954  0.09694164    -0.08300
C1233       C  0.80058268  0.09349004  0.08289849    -0.02800
C1234       C  0.77802391  0.06657192  0.07601206     0.04000
N1235       N  0.78581999  0.03207466  0.06083006     0.66500
H1236       H  0.73045481  0.05184195  0.08055842     0.15400
H1237       H  0.80788113  0.14917736  0.10184074     0.15100
N1238       N  0.75279144  0.16947152  0.11915422     0.74200
O1239       O  0.78910789  0.00412060  0.07984738    -0.39300
O1240       O  0.78469080  0.02830458  0.02844720    -0.39200
O1241       O  0.76282141  0.17940532  0.14818132    -0.39900
O1242       O  0.73918872  0.19241684  0.10029115    -0.40000
C1243       C  0.75182319  0.38838372  0.12322263    -0.12200
C1244       C  0.72825108  0.40142260  0.10224648     0.04800
C1245       C  0.73606068  0.42177099  0.07197544    -0.07500
C1246       C  0.76700108  0.42900308  0.06388282    -0.08300
C1247       C  0.79027775  0.41573225  0.08508952    -0.02800
C1248       C  0.78239399  0.39571039  0.11531035     0.04000
N1249       N  0.80515270  0.38427375  0.13939099     0.66500
H1250       H  0.74661769  0.37369924  0.14703412     0.15400
H1251       H  0.77286820  0.44401120  0.04043569     0.15100
N1252       N  0.71309857  0.43466668  0.04886836     0.74200
O1253       O  0.81851368  0.40795225  0.15781542    -0.39300
O1254       O  0.80812353  0.35054389  0.14632145    -0.39200
O1255       O  0.71183422  0.46846329  0.04143496    -0.39900
O1256       O  0.69781950  0.41181230  0.03143182    -0.40000
C1257       C  0.51853708  0.44167790  0.13608252    -0.12200
C1258       C  0.53848607  0.41173468  0.13661925     0.04800
C1259       C  0.52676309  0.37619538  0.12856663    -0.07500
C1260       C  0.49671895  0.37232426  0.11648307    -0.08300
C1261       C  0.97850097  0.40067313  0.11107567    -0.02800
C1262       C  0.98648983  0.42617356  0.13727471     0.04000
N1263       N  0.96366425  0.44600653  0.15608306     0.66500
H1264       H  0.52692033  0.46898298  0.14232973     0.15400
H1265       H  0.48827645  0.34529456  0.10931181     0.15100
N1266       N  0.54486656  0.34374990  0.13291405     0.74200
O1267       O  0.94721952  0.42940541  0.17828150    -0.39300
O1268       O  0.96401424  0.48072406  0.15541672    -0.39200
O1269       O  0.55716819  0.33716273  0.16166726    -0.39900
O1270       O  0.54593998  0.31980171  0.10938009    -0.40000
C1271       C  0.89282820  0.27517857  0.02206623    -0.12200
C1272       C  0.88547450  0.29335082  0.05314557     0.04800
C1273       C  0.87759740  0.27166859  0.08240510    -0.07500
C1274       C  0.87952854  0.23326303  0.08084379    -0.08300
C1275       C  0.88905812  0.21522201  0.05056865    -0.02800
C1276       C  0.89443056  0.23658011  0.02045884     0.04000
N1277       N  0.90238955  0.22115101  0.49107698     0.66500
H1278       H  0.89860253  0.29214156  0.50159273     0.15400
H1279       H  0.87431401  0.21750236  0.10404497     0.15100
N1280       N  0.86765300  0.28796112  0.11411106     0.74200
O1281       O  0.88109895  0.21402431  0.47025980    -0.39300
O1282       O  0.92990860  0.21854220  0.48117316    -0.39200
O1283       O  0.83983562  0.28511970  0.12293405    -0.39900
O1284       O  0.88722158  0.29645775  0.13657773    -0.40000
C1285       C  0.84075294  0.46777239  0.39652243    -0.12200
C1286       C  0.86375824  0.49213475  0.38482616     0.04800
C1287       C  0.89343576  0.48918513  0.39867306    -0.07500
C1288       C  0.89922411  0.46369813  0.42500032    -0.08300
C1289       C  0.87562210  0.44170276  0.43906546    -0.02800
C1290       C  0.84628050  0.44320146  0.42396784     0.04000
N1291       N  0.82157603  0.42115357  0.43728601     0.66500
H1292       H  0.81797435  0.46934954  0.38580810     0.15400
H1293       H  0.92177147  0.46347657  0.43649446     0.15100
N1294       N  0.91780367  0.51278265  0.38699047     0.74200
O1295       O  0.80258784  0.43495696  0.45824242    -0.39300
O1296       O  0.81571185  0.39045091  0.42360987    -0.39200
O1297       O  0.92733823  0.53822672  0.40634215    -0.39900
O1298       O  0.93343575  0.50381215  0.36079528    -0.40000
C1299       C  0.89677861  0.53174683  0.14999779    -0.12200
C1300       C  0.87189025  0.51488378  0.13396725     0.04800
C1301       C  0.84194242  0.52462066  0.14416812    -0.07500
C1302       C  0.83747830  0.54924292  0.17167804    -0.08300
C1303       C  0.86250793  0.56384468  0.18992074    -0.02800
C1304       C  0.89245746  0.55551364  0.17809230     0.04000
N1305       N  0.91881996  0.56820183  0.19618202     0.66500
H1306       H  0.91980505  0.52484533  0.14189553     0.15400
H1307       H  0.81429420  0.55461680  0.18045083     0.15100
N1308       N  0.81588443  0.50901234  0.12733145     0.74200
O1309       O  0.93727684  0.54503721  0.20822025    -0.39300
O1310       O  0.92636841  0.60177922  0.19486718    -0.39200
O1311       O  0.79780423  0.48795271  0.14383839    -0.39900
O1312       O  0.80855931  0.52044310  0.09772510    -0.40000
C1313       C  0.73799099  0.53603623  0.24891113    -0.12200
C1314       C  0.76668439  0.51817470  0.25014812     0.04800
C1315       C  0.76944688  0.48367709  0.23404710    -0.07500
C1316       C  0.74421705  0.46834772  0.21694284    -0.08300
C1317       C  0.71563562  0.48640650  0.21540720    -0.02800
C1318       C  0.71274353  0.52058318  0.23201261     0.02400
N1319       N  0.68440165  0.53997891  0.23226769     0.66500
H1320       H  0.73487930  0.56255602  0.26111033     0.15400
H1321       H  0.74718995  0.44168407  0.20497055     0.15100
N1322       N  0.79726861  0.46324794  0.23549482     0.74200
O1323       O  0.66506980  0.53392486  0.25613392    -0.39300
O1324       O  0.68104547  0.56731863  0.21249454    -0.39200
O1325       O  0.79770461  0.43297634  0.25158137    -0.39900
O1326       O  0.81956851  0.47206683  0.21608971    -0.40000
C1327       C  0.74783651  0.96750204  0.23956559    -0.12200
C1328       C  0.77350159  0.98814294  0.25086125     0.04800
C1329       C  0.77413353  0.02625910  0.24453239    -0.07500
C1330       C  0.74974544  0.04273199  0.22696914    -0.08300
C1331       C  0.72415724  0.02201787  0.21564434    -0.02800
C1332       C  0.72358331  0.98392387  0.22181495     0.04000
N1333       N  0.69953055  0.96125900  0.20843221     0.66500
H1334       H  0.74703276  0.93793916  0.24332189     0.15400
H1335       H  0.75052057  0.07226639  0.22299032     0.15100
N1336       N  0.79867268  0.04880061  0.25692711     0.74200
O1337       O  0.69542879  0.95942362  0.17621301    -0.39300
O1338       O  0.68346922  0.94148151  0.22858387    -0.39200
O1339       O  0.81546661  0.06656045  0.23589025    -0.39900
O1340       O  0.80290846  0.05203813  0.28901722    -0.40000
C1341       C  0.85750090  0.77225952  0.33390124    -0.12200
C1342       C  0.85103388  0.79181829  0.30344741     0.04800
C1343       C  0.84443260  0.77154562  0.27320317    -0.07500
C1344       C  0.84378996  0.73283306  0.27423535    -0.08300
C1345       C  0.84897955  0.71336583  0.30513631    -0.02800
C1346       C  0.85646210  0.73371886  0.33507281     0.04000
N1347       N  0.86265952  0.71583215  0.36719528     0.66500
H1348       H  0.86287348  0.78698907  0.35742111     0.15400
H1349       H  0.83775438  0.71803606  0.25097131     0.15100
N1350       N  0.83626011  0.78966694  0.24180598     0.74200
O1351       O  0.88963493  0.70618888  0.37400808    -0.39300
O1352       O  0.84236586  0.71484927  0.39065432    -0.39200
O1353       O  0.85490299  0.79050216  0.21667561    -0.39900
O1354       O  0.80898974  0.79979651  0.23742841    -0.40000
C1355       C  0.90423488  0.96130328  0.18938423    -0.12200
C1356       C  0.87448053  0.94645775  0.19388373     0.04800
C1357       C  0.85200596  0.95544881  0.16913859    -0.07500
C1358       C  0.85890499  0.98116586  0.14289954    -0.08300
C1359       C  0.88798943  0.99759618  0.14010723    -0.02800
C1360       C  0.91108111  0.98662575  0.16287380     0.04000
N1361       N  0.94089476  0.00304886  0.16112692     0.66500
H1362       H  0.92193864  0.95500286  0.20788366     0.15400
H1363       H  0.84113197  0.98912268  0.12505641     0.15100
N1364       N  0.82156999  0.94067380  0.17145815     0.74200
O1365       O  0.94975921  0.02344314  0.18545758    -0.39300
O1366       O  0.96005325  0.99194323  0.13894863    -0.39200
O1367       O  0.79898945  0.96208518  0.17300806    -0.39900
O1368       O  0.81704782  0.90678012  0.16634802    -0.40000
C1369       C  0.89015108  0.03168179  0.39015393    -0.12200
C1370       C  0.86246297  0.01161116  0.39013279     0.04800
C1371       C  0.84040741  0.01895274  0.41575106    -0.07500
C1372       C  0.84676036  0.04455368  0.44179874    -0.08300
C1373       C  0.87543634  0.06275132  0.44377261    -0.02800
C1374       C  0.89676528  0.05718830  0.41654131     0.04000
N1375       N  0.92570671  0.07583300  0.41605055     0.66500
H1376       H  0.90718566  0.02660805  0.37019735     0.15400
H1377       H  0.82971409  0.04817803  0.46203287     0.15100
N1378       N  0.81219540  0.99881971  0.41702730     0.74200
O1379       O  0.92738810  0.10867361  0.40542263    -0.39300
O1380       O  0.94996226  0.05795488  0.42078069    -0.39200
O1381       O  0.80964052  0.97130853  0.43688923    -0.39900
O1382       O  0.78852178  0.01258353  0.40394686    -0.40000
C1383       C  0.49138298  0.54278843  0.47537502    -0.12200
C1384       C  0.51663359  0.52197611  0.46373488     0.04800
C1385       C  0.01659245  0.48636938  0.46735691    -0.07500
C1386       C  0.99196633  0.46965071  0.48482503    -0.08300
C1387       C  0.96789352  0.49060776  0.49897654    -0.02800
C1388       C  0.96573889  0.52536428  0.98843547     0.04000
N1389       N  0.44794048  0.54864338  0.01171143     0.66500
H1390       H  0.49752692  0.57149449  0.97889423     0.15400
H1391       H  0.99125718  0.43986192  0.48647137     0.15100
N1392       N  0.03957126  0.46384671  0.45177839     0.74200
O1393       O  0.44563399  0.55267255  0.04403201    -0.39300
O1394       O  0.92248253  0.55721004  0.97062672    -0.39200
O1395       O  0.55607637  0.44148598  0.47589304    -0.39900
O1396       O  0.04055890  0.46034241  0.41933215    -0.40000
C1397       C  0.99771827  0.58923012  0.32463077    -0.12200
C1398       C  0.00342108  0.61180974  0.35337135     0.04800
C1399       C  0.97830573  0.62663425  0.37159640    -0.07500
C1400       C  0.94858605  0.61785937  0.36150300    -0.08300
C1401       C  0.94280279  0.59456991  0.33322988    -0.02800
C1402       C  0.96783549  0.58017843  0.31456118     0.04000
N1403       N  0.96372930  0.55766879  0.28467918     0.66500
H1404       H  0.51674017  0.57462492  0.31170539     0.15400
H1405       H  0.92975605  0.62935342  0.37629100     0.15100
N1406       N  0.98235776  0.65041799  0.40058940     0.74200
O1407       O  0.97848003  0.56553326  0.25737536    -0.39300
O1408       O  0.95219597  0.52587280  0.28799884    -0.39200
O1409       O  0.98406407  0.68476830  0.39589122    -0.39900
O1410       O  0.97886309  0.63784580  0.43084423    -0.40000
C1411       C  0.71291528  0.56351254  0.38131227    -0.12200
C1412       C  0.69317819  0.59377937  0.38150277     0.04800
C1413       C  0.70539139  0.62932720  0.37411027    -0.07500
C1414       C  0.73608243  0.63342366  0.36443205    -0.08300
C1415       C  0.75534893  0.60302128  0.36299842    -0.02800
C1416       C  0.74384524  0.56788732  0.37226099     0.04000
N1417       N  0.76266353  0.53598719  0.36989757     0.66500
H1418       H  0.70410561  0.53608668  0.38669763     0.15400
H1419       H  0.74486316  0.66054570  0.35767815     0.15100
N1420       N  0.68693424  0.66161442  0.37580213     0.74200
O1421       O  0.77570681  0.52403127  0.39658660    -0.39300
O1422       O  0.76182559  0.51633512  0.34308424    -0.39200
O1423       O  0.68318869  0.67777517  0.40433499    -0.39900
O1424       O  0.67844564  0.67701107  0.34825595    -0.40000
C1425       C  0.65133546  0.52918618  0.06116345    -0.12200
C1426       C  0.62553539  0.51542533  0.07893241     0.04800
C1427       C  0.59636693  0.52849889  0.07006573    -0.07500
C1428       C  0.59319744  0.55335665  0.04253966    -0.08300
C1429       C  0.61868460  0.56488348  0.02263765    -0.02800
C1430       C  0.64817342  0.55343335  0.03298002     0.04000
N1431       N  0.67498466  0.56476473  0.01414856     0.66500
H1432       H  0.67390641  0.51969163  0.06811043     0.15400
H1433       H  0.57030499  0.56114695  0.03496986     0.15100
N1434       N  0.56952600  0.51522520  0.08766733     0.74200
O1435       O  0.68760142  0.59520673  0.02101232    -0.39300
O1436       O  0.68685601  0.55555359  0.49822495    -0.39200
O1437       O  0.55993436  0.53174921  0.11423318    -0.39900
O1438       O  0.55267489  0.49144222  0.07341702    -0.40000
C1439       C  0.58761217  0.45271573  0.28125477    -0.12200
C1440       C  0.61767538  0.44085697  0.27394783     0.04800
C1441       C  0.64142411  0.45232127  0.29633376    -0.07500
C1442       C  0.63531631  0.47864822  0.32206185    -0.08300
C1443       C  0.60575597  0.49249022  0.32726048    -0.02800
C1444       C  0.58150218  0.47797804  0.30779835     0.04000
N1445       N  0.55091530  0.49062354  0.31295532     0.66500
H1446       H  0.56892685  0.44415853  0.26479956     0.15400
H1447       H  0.65392997  0.48888083  0.33779707     0.15100
N1448       N  0.67205191  0.43899020  0.29236017     0.74200
O1449       O  0.53915524  0.51169659  0.29085381    -0.39300
O1450       O  0.53395507  0.47513043  0.33535453    -0.39200
O1451       O  0.69443762  0.46117790  0.29317781    -0.39900
O1452       O  0.67697420  0.40487418  0.29446477    -0.40000
C1453       C  0.75249016  0.92321284  0.38450827    -0.12200
C1454       C  0.75893442  0.89524061  0.36064872     0.04800
C1455       C  0.73470960  0.87413728  0.34719830    -0.07500
C1456       C  0.70469743  0.88303830  0.35610637    -0.08300
C1457       C  0.69800332  0.91207422  0.37902741    -0.02800
C1458       C  0.72244826  0.93204077  0.39378583     0.04000
N1459       N  0.71774390  0.96083831  0.41841564     0.66500
H1460       H  0.77090731  0.93967431  0.39495000     0.15400
H1461       H  0.68643730  0.86683382  0.34479830     0.15100
N1462       N  0.74009192  0.84357484  0.32464324     0.74200
O1463       O  0.73327273  0.96085331  0.44576927    -0.39300
O1464       O  0.70541979  0.99042628  0.40891876    -0.39200
O1465       O  0.75681925  0.81737741  0.33432572    -0.39900
O1466       O  0.72600527  0.84111705  0.29639358    -0.40000
C1467       C  0.98677942  0.88082307  0.37019611    -0.12200
C1468       C  0.00965257  0.90300782  0.35491272     0.04800
C1469       C  0.00081312  0.93018078  0.33058353    -0.07500
C1470       C  0.96985038  0.93496892  0.32274082    -0.08300
C1471       C  0.94712720  0.91358601  0.33884460    -0.02800
C1472       C  0.95580373  0.88641177  0.36320508     0.04000
N1473       N  0.93343778  0.86620168  0.38313100     0.66500
H1474       H  0.99273773  0.86044609  0.38946762     0.15400
H1475       H  0.96356435  0.95591023  0.30414359     0.15100
N1476       N  0.52296269  0.95637186  0.31672174     0.74200
O1477       O  0.93355751  0.83146618  0.38313732    -0.39300
O1478       O  0.91580660  0.88297754  0.40366991    -0.39200
O1479       O  0.53403603  0.95409573  0.28655711    -0.39900
O1480       O  0.52709600  0.98533806  0.33397068    -0.40000
C1481       C  0.60098297  0.77542550  0.37654607    -0.12200
C1482       C  0.60113891  0.79422229  0.40827273     0.04800
C1483       C  0.60192995  0.77310868  0.43906239    -0.07500
C1484       C  0.60131645  0.73439104  0.43751180    -0.08300
C1485       C  0.59984416  0.71570522  0.40570883    -0.02800
C1486       C  0.60005464  0.73696058  0.37493331     0.04000
N1487       N  0.59784237  0.72023342  0.34163483     0.66500
H1488       H  0.60041546  0.79065162  0.35242204     0.15400
H1489       H  0.60134248  0.71893043  0.46151791     0.15100
N1490       N  0.60271032  0.79035891  0.47217517     0.74200
O1491       O  0.57178090  0.71347757  0.32920381    -0.39300
O1492       O  0.62123179  0.71876693  0.32228677    -0.39200
O1493       O  0.57895591  0.79048180  0.49102525    -0.39900
O1494       O  0.62805502  0.80025342  0.48465956    -0.40000
C1495       C  0.59327062  0.03436850  0.31123449    -0.12200
C1496       C  0.61764002  0.01438203  0.32491872     0.04800
C1497       C  0.64775918  0.02305530  0.31385264    -0.07500
C1498       C  0.65276339  0.04979877  0.28813001    -0.08300
C1499       C  0.62814700  0.06719172  0.27187022    -0.02800
C1500       C  0.59816498  0.06012307  0.28451198     0.04000
N1501       N  0.57233707  0.07776713  0.26955230     0.66500
H1502       H  0.57019221  0.02903859  0.32035418     0.15400
H1503       H  0.67593980  0.05430739  0.27861764     0.15100
N1504       N  0.67357081  0.00445287  0.32787844     0.74200
O1505       O  0.55205955  0.05860755  0.25492871    -0.39300
O1506       O  0.56691062  0.11094138  0.27671800    -0.39200
O1507       O  0.67964960  0.97231588  0.31780204    -0.39900
O1508       O  0.69389932  0.02290172  0.34320793    -0.40000
C1509       C  0.65866746  0.98615736  0.05516776    -0.12200
C1510       C  0.63575282  0.98944983  0.08024465     0.04800
C1511       C  0.60921480  0.96704606  0.07781043    -0.07500
C1512       C  0.60495362  0.94453180  0.04854808    -0.08300
C1513       C  0.62696644  0.94331410  0.02182661    -0.02800
C1514       C  0.65486506  0.96309420  0.02658298     0.04000
N1515       N  0.67657601  0.96042172  0.50249189     0.66500
H1516       H  0.67923275  0.00298148  0.05693387     0.15400
H1517       H  0.58357181  0.92951683  0.04587145     0.15100
N1518       N  0.58565513  0.96836671  0.10376198     0.74200
O1519       O  0.68443478  0.98892992  0.48579148    -0.39300
O1520       O  0.69373367  0.93265377  0.50229002    -0.39200
O1521       O  0.55789385  0.96888918  0.09499123    -0.39900
O1522       O  0.59226212  0.96319939  0.13509441    -0.40000
C1523       C  0.03238244  0.01834986  0.49043372    -0.12200
C1524       C  0.52456819  0.99313684  0.46031432     0.04800
C1525       C  0.49382647  0.98683800  0.45022357    -0.07500
C1526       C  0.97177276  0.99779618  0.97583571    -0.08300
C1527       C  0.97749624  0.02362260  0.50290788    -0.02800
C1528       C  0.00838371  0.03355021  0.50981698     0.04000
N1529       N  0.01595829  0.05784383  0.53743767     0.66500
H1530       H  0.05580809  0.02533761  0.49693515     0.15400
H1531       H  0.94827678  0.99094920  0.96948975     0.15100
N1532       N  0.48875985  0.96258714  0.92477420     0.74200
O1533       O  0.01616492  0.04554332  0.56796100    -0.39300
O1534       O  0.02838182  0.08858397  0.53079434    -0.39200
O1535       O  0.48091177  0.92927661  0.92840196    -0.39900
O1536       O  0.48134187  0.97947445  0.89761635    -0.40000
O1537       O  0.56401896  0.91536959  0.85282113    -0.85300
O1538       O  0.61930471  0.95301833  0.84417813    -0.82400
C1539       C  0.61269264  0.98572048  0.85243567     0.98100
O1540       O  0.60345648  0.99262757  0.88257491    -0.82400
O1541       O  0.58047270  0.98140088  0.94908714    -0.85100
C1542       C  0.55251939  0.97063160  0.94809456     1.02700
O1543       O  0.54574899  0.93994031  0.93585057    -0.77800
O1544       O  0.54640388  0.88137503  0.89562479    -0.78000
C1545       C  0.54179768  0.89966990  0.86800135     1.02600
O1546       O  0.59635304  0.85156536  0.87865410    -0.85300
O1547       O  0.64815380  0.89366586  0.87895167    -0.82400
C1548       C  0.66721930  0.91822893  0.88706376     0.98200
O1549       O  0.65815223  0.94950054  0.89793583    -0.82400
O1550       O  0.63505654  0.93690800  0.96167073    -0.85000
C1551       C  0.61811370  0.92912236  0.98687685     1.02600
O1552       O  0.59203309  0.91467487  0.98107738    -0.77800
O1553       O  0.59813712  0.85341654  0.93504962    -0.78000
C1554       C  0.59899290  0.83496206  0.90746401     1.02600
Cr1555     Cr  0.60631216  0.90464090  0.86637338     1.93700
Cr1556     Cr  0.61785983  0.96247394  0.92187318     1.93200
Cr1557     Cr  0.57292770  0.89849812  0.93522217     1.39100
O1558       O  0.59906158  0.92220466  0.90792906    -1.23100
O1559       O  0.54305113  0.62896337  0.89602054    -0.85300
O1560       O  0.54083063  0.57045440  0.93771852    -0.82400
C1561       C  0.54715027  0.53988739  0.95078147     0.98100
O1562       O  0.57460548  0.52793365  0.95007449    -0.82400
O1563       O  0.59694861  0.51603925  0.88325413    -0.85100
C1564       C  0.60605778  0.52281601  0.85292242     1.02700
O1565       O  0.61308147  0.55545218  0.84433944    -0.77800
O1566       O  0.55877424  0.59395672  0.85368980    -0.78000
C1567       C  0.53727622  0.61029354  0.86914719     1.02600
O1568       O  0.59569201  0.65625241  0.93383197    -0.85300
O1569       O  0.58787873  0.59588176  0.98076949    -0.82400
C1570       C  0.61288049  0.57997558  0.98742798     0.98200
O1571       O  0.63013249  0.57065000  0.96296933    -0.82400
O1572       O  0.65267456  0.55855346  0.89804301    -0.85000
C1573       C  0.66232672  0.58936300  0.88588805     1.02600
O1574       O  0.64380919  0.61417239  0.87792305    -0.77800
O1575       O  0.59339728  0.65723596  0.87753392    -0.78000
C1576       C  0.59698958  0.67424104  0.90580562     1.02600
Cr1577     Cr  0.56920828  0.61159073  0.93529489     1.93700
Cr1578     Cr  0.61223132  0.54612051  0.92249060     1.93200
Cr1579     Cr  0.60157553  0.60393052  0.86621459     1.39100
O1580       O  0.59443532  0.58686784  0.90823298    -1.23100
O1581       O  0.79586013  0.87561854  0.81749793    -0.85300
O1582       O  0.79213168  0.93594513  0.77803762    -0.82400
C1583       C  0.79829358  0.96739969  0.76647527     0.98100
O1584       O  0.82575216  0.98004064  0.76686037    -0.82400
O1585       O  0.84869454  0.98935197  0.83338545    -0.85100
C1586       C  0.85826419  0.98119963  0.86299674     1.02700
O1587       O  0.86619784  0.94851728  0.86961997    -0.77800
O1588       O  0.81343760  0.90777190  0.86115229    -0.78000
C1589       C  0.79161561  0.89172962  0.84626216     1.02600
O1590       O  0.84811765  0.85215216  0.77583167    -0.85300
O1591       O  0.83965176  0.91470912  0.73244056    -0.82400
C1592       C  0.86520310  0.93043372  0.72648474     0.98200
O1593       O  0.88182416  0.93896389  0.75145066    -0.82400
O1594       O  0.90492939  0.95065153  0.81553981    -0.85000
C1595       C  0.91524607  0.91987868  0.82623980     1.02600
O1596       O  0.89751546  0.89297561  0.83120011    -0.77800
O1597       O  0.84735986  0.84831081  0.83209955    -0.78000
C1598       C  0.84998118  0.83287096  0.80290068     1.02600
Cr1599     Cr  0.82126724  0.89593162  0.77781617     1.93700
Cr1600     Cr  0.86394760  0.96192592  0.79254792     1.93200
Cr1601     Cr  0.85545677  0.90071931  0.84575558     1.39100
O1602       O  0.84667527  0.91999493  0.80533094    -1.23100
O1603       O  0.81140650  0.59271352  0.86134175    -0.85300
O1604       O  0.86613914  0.55481740  0.86542387    -0.82400
C1605       C  0.85846023  0.52226641  0.85775622     0.98100
O1606       O  0.84814136  0.51535371  0.82817415    -0.82400
O1607       O  0.82306432  0.52762000  0.76274611    -0.85100
C1608       C  0.79538004  0.53873926  0.76469707     1.02700
O1609       O  0.78930022  0.56825137  0.77984137    -0.77800
O1610       O  0.79342151  0.62762554  0.82026647    -0.78000
C1611       C  0.78927499  0.60948434  0.84810306     1.02600
O1612       O  0.84429469  0.65601547  0.83324968    -0.85300
O1613       O  0.89475575  0.61377823  0.82893522    -0.82400
C1614       C  0.91312004  0.58866713  0.82102865     0.98200
O1615       O  0.90319233  0.55798976  0.80931371    -0.82400
O1616       O  0.87741861  0.57116682  0.74596296    -0.85000
C1617       C  0.85877839  0.58026518  0.72303123     1.02600
O1618       O  0.83351394  0.59457436  0.73182130    -0.77800
O1619       O  0.84337681  0.65491319  0.77687265    -0.78000
C1620       C  0.84654450  0.67283908  0.80453158     1.02600
Cr1621     Cr  0.85335131  0.60308323  0.84451218     1.93700
Cr1622     Cr  0.86169149  0.54569777  0.78771288     1.93200
Cr1623     Cr  0.81720364  0.61007143  0.77874311     1.39100
O1624       O  0.84419118  0.58595994  0.80344405    -1.23100
O1625       O  0.92504513  0.41823015  0.61262992    -0.85300
O1626       O  0.86954237  0.45522679  0.61529561    -0.82400
C1627       C  0.87703550  0.48765552  0.60641290     0.98100
O1628       O  0.88785125  0.49383655  0.57672151    -0.82400
O1629       O  0.91445867  0.48078055  0.51286292    -0.85100
C1630       C  0.94225843  0.47074317  0.51588859     1.02700
O1631       O  0.94875355  0.44128780  0.53090245    -0.77800
O1632       O  0.94489681  0.38277255  0.57278387    -0.78000
C1633       C  0.94799215  0.40220170  0.59980037     1.02600
O1634       O  0.89337016  0.35318781  0.58609811    -0.85300
O1635       O  0.84191261  0.39464970  0.58085477    -0.82400
C1636       C  0.82384704  0.41875584  0.56988557     0.98200
O1637       O  0.83411673  0.44959721  0.55867963    -0.82400
O1638       O  0.85844329  0.43698814  0.99853326    -0.85000
C1639       C  0.87698656  0.42863226  0.97499667     1.02600
O1640       O  0.90231435  0.41418435  0.98296311    -0.77800
O1641       O  0.89599803  0.35386099  0.52969159    -0.78000
C1642       C  0.89240736  0.33605816  0.55754230     1.02600
Cr1643     Cr  0.88334553  0.40643106  0.59607510     1.93700
Cr1644     Cr  0.87567926  0.46212022  0.53756652     1.93200
Cr1645     Cr  0.92151049  0.39899961  0.53064481     1.39100
O1646       O  0.89344190  0.42281644  0.55464354    -1.23100
O1647       O  0.95183320  0.13516641  0.56885508    -0.85300
O1648       O  0.95686379  0.07512601  0.53007142    -0.82400
C1649       C  0.95141718  0.04371573  0.51843687     0.98100
O1650       O  0.92393048  0.03147020  0.51717055    -0.82400
O1651       O  0.90139119  0.01981702  0.58318019    -0.85100
C1652       C  0.89159240  0.02669989  0.61306270     1.02700
O1653       O  0.88283786  0.05882637  0.62065500    -0.77800
O1654       O  0.93499051  0.10148266  0.61227703    -0.78000
C1655       C  0.95668800  0.11821322  0.59712766     1.02600
O1656       O  0.89939406  0.15746282  0.52770869    -0.85300
O1657       O  0.90992366  0.09268307  0.98311776    -0.82400
C1658       C  0.88445669  0.07644328  0.97803799     0.98200
O1659       O  0.86777332  0.06896629  0.00362805    -0.82400
O1660       O  0.84437991  0.05708937  0.56674818    -0.85000
C1661       C  0.83302593  0.08763664  0.57636380     1.02600
O1662       O  0.85028919  0.11420620  0.58404291    -0.77800
O1663       O  0.89935877  0.16061096  0.58415707    -0.78000
C1664       C  0.89618204  0.17616101  0.55498582     1.02600
Cr1665     Cr  0.92717800  0.11448595  0.52919884     1.93700
Cr1666     Cr  0.88550310  0.04773618  0.54342304     1.93200
Cr1667     Cr  0.89261603  0.10759570  0.59762651     1.39100
O1668       O  0.90186845  0.08961532  0.55674212    -1.23100
O1669       O  0.69544820  0.38095701  0.63934047    -0.85300
O1670       O  0.69901693  0.44044781  0.67893635    -0.82400
C1671       C  0.69302599  0.47024946  0.69347251     0.98100
O1672       O  0.66526468  0.48088470  0.69605104    -0.82400
O1673       O  0.63927306  0.49127553  0.63111868    -0.85100
C1674       C  0.62826015  0.48408550  0.60196731     1.02700
O1675       O  0.62021748  0.45146246  0.59496773    -0.77800
O1676       O  0.67563655  0.41495624  0.59847529    -0.78000
C1677       C  0.69848559  0.39938940  0.61152066     1.02600
O1678       O  0.64674711  0.35227344  0.68369941    -0.85300
O1679       O  0.65564305  0.41422542  0.72867403    -0.82400
C1680       C  0.63027242  0.42853856  0.73741069     0.98200
O1681       O  0.61154703  0.43654452  0.71425679    -0.82400
O1682       O  0.58464354  0.44809919  0.65200858    -0.85000
C1683       C  0.57432732  0.41697157  0.64163740     1.02600
O1684       O  0.59256777  0.39229653  0.63202362    -0.77800
O1685       O  0.64447215  0.35073562  0.62729785    -0.78000
C1686       C  0.64420861  0.33388057  0.65616854     1.02600
Cr1687     Cr  0.67174620  0.39815269  0.68122258     1.93700
Cr1688     Cr  0.62645107  0.46154395  0.67216355     1.93200
Cr1689     Cr  0.63405883  0.40353851  0.61594350     1.39100
O1690       O  0.64384598  0.42117579  0.65673871    -1.23100
O1691       O  0.68520226  0.09047923  0.60219126    -0.85300
O1692       O  0.63053407  0.05256779  0.59619615    -0.82400
C1693       C  0.63626855  0.02003035  0.60589634     0.98100
O1694       O  0.64419281  0.01387854  0.63654569    -0.82400
O1695       O  0.66812765  0.02849563  0.70171778    -0.85100
C1696       C  0.69611131  0.03939313  0.70141982     1.02700
O1697       O  0.70390949  0.06917491  0.68724304    -0.77800
O1698       O  0.70286991  0.12648489  0.64290455    -0.78000
C1699       C  0.70717016  0.10755923  0.61571814     1.02600
O1700       O  0.65275881  0.15553333  0.62576462    -0.85300
O1701       O  0.60115593  0.11346598  0.62842508    -0.82400
C1702       C  0.58188116  0.08925685  0.63724790     0.98200
O1703       O  0.59064272  0.05901587  0.65068333    -0.82400
O1704       O  0.61420369  0.07450783  0.71395430    -0.85000
C1705       C  0.63193004  0.08312050  0.73787089     1.02600
O1706       O  0.65779957  0.09721130  0.73033320    -0.77800
O1707       O  0.65109591  0.15563599  0.68212610    -0.78000
C1708       C  0.64960998  0.17307279  0.65393109     1.02600
Cr1709     Cr  0.64306947  0.10181171  0.61605373     1.93700
Cr1710     Cr  0.63077118  0.04667361  0.67463403     1.93200
Cr1711     Cr  0.67657001  0.11086278  0.68380439     1.39100
O1712       O  0.65027219  0.08586690  0.65821890    -1.23100
C1713       C  0.64492277  0.27379142  0.62484606    -0.12200
C1714       C  0.64359663  0.29263153  0.65657076     0.04800
C1715       C  0.64348946  0.27151720  0.68739052    -0.07500
C1716       C  0.64439342  0.23285733  0.68585265    -0.08300
C1717       C  0.64632944  0.21410480  0.65408337    -0.02800
C1718       C  0.64664330  0.23529901  0.62331177     0.04000
N1719       N  0.64983625  0.21847403  0.59014949     0.66500
H1720       H  0.64549527  0.28904592  0.60072076     0.15400
H1721       H  0.64448121  0.21751306  0.70992364     0.15100
N1722       N  0.64357694  0.28872133  0.72055303     0.74200
O1723       O  0.62628953  0.21097534  0.57280692    -0.39300
O1724       O  0.67589766  0.21713438  0.57584263    -0.39200
O1725       O  0.61948850  0.28856022  0.73884297    -0.39900
O1726       O  0.66871696  0.29805878  0.73390885    -0.40000
C1727       C  0.49453648  0.08636797  0.63385250    -0.12200
C1728       C  0.98790749  0.11536943  0.61138507     0.04800
C1729       C  0.51371918  0.13381710  0.59504033    -0.07500
C1730       C  0.54342496  0.12550527  0.60531188    -0.08300
C1731       C  0.54937868  0.09676635  0.62897319    -0.02800
C1732       C  0.52431673  0.07736295  0.64373097     0.04000
N1733       N  0.52821493  0.04863987  0.66869538     0.66500
H1734       H  0.47572111  0.07056514  0.64481082     0.15400
H1735       H  0.56204736  0.14138094  0.59381844     0.15100
N1736       N  0.00683672  0.17009107  0.57938502     0.74200
O1737       O  0.51281053  0.04951535  0.69644827    -0.39300
O1738       O  0.53984806  0.01855168  0.65939118    -0.39200
O1739       O  0.00050594  0.20022823  0.59378866    -0.39900
O1740       O  0.01307659  0.16958158  0.54746660    -0.40000
C1741       C  0.74745847  0.06981864  0.58809237    -0.12200
C1742       C  0.73801675  0.10419680  0.60063577     0.04800
C1743       C  0.75898677  0.13364531  0.60122277    -0.07500
C1744       C  0.78936382  0.12783400  0.59153319    -0.08300
C1745       C  0.79961365  0.09280801  0.58121418    -0.02800
C1746       C  0.77799269  0.06389116  0.57831477     0.04000
N1747       N  0.78669426  0.02815891  0.56669617     0.66500
H1748       H  0.73134929  0.04696730  0.58725290     0.15400
H1749       H  0.80512163  0.15097642  0.59291561     0.15100
N1750       N  0.74967469  0.16975429  0.61112248     0.74200
O1751       O  0.78926979  0.00228748  0.58829267    -0.39300
O1752       O  0.78631786  0.02097377  0.53480661    -0.39200
O1753       O  0.75784021  0.18265367  0.63986997    -0.39900
O1754       O  0.73828306  0.19088544  0.58881602    -0.40000
C1755       C  0.74847453  0.37302467  0.59485389    -0.12200
C1756       C  0.72892062  0.40326436  0.59517991     0.04800
C1757       C  0.73958397  0.43742750  0.58212924    -0.07500
C1758       C  0.77014028  0.44137772  0.57137816    -0.08300
C1759       C  0.79043427  0.41174581  0.57340779    -0.02800
C1760       C  0.77877172  0.37665795  0.58328275     0.04000
N1761       N  0.79736432  0.34444941  0.58197952     0.66500
H1762       H  0.74018488  0.34638569  0.60376722     0.15400
H1763       H  0.77836850  0.46834337  0.56342761     0.15100
N1764       N  0.72045857  0.46913257  0.58221388     0.74200
O1765       O  0.80185584  0.32603928  0.60915507    -0.39300
O1766       O  0.80537072  0.33146021  0.55308157    -0.39200
O1767       O  0.71628133  0.48665737  0.60995433    -0.39900
O1768       O  0.71293336  0.48350482  0.55383392    -0.40000
C1769       C  0.52026901  0.43931997  0.64045793    -0.12200
C1770       C  0.54081809  0.41003495  0.63731924     0.04800
C1771       C  0.52938534  0.37544080  0.62581876    -0.07500
C1772       C  0.49918803  0.37237173  0.61397818    -0.08300
C1773       C  0.97854819  0.40653572  0.61552610    -0.02800
C1774       C  0.98937640  0.44105290  0.62717142     0.04000
N1775       N  0.97063920  0.47303925  0.62558178     0.66500
H1776       H  0.52818060  0.46581933  0.64970479     0.15400
H1777       H  0.49112894  0.34620873  0.60403483     0.15100
N1778       N  0.54792756  0.34304866  0.62624720     0.74200
O1779       O  0.96471334  0.49040240  0.65299252    -0.39300
O1780       O  0.96542318  0.48785876  0.59669599    -0.39200
O1781       O  0.55933653  0.33208263  0.65429372    -0.39900
O1782       O  0.54978464  0.32295975  0.59976465    -0.40000
C1783       C  0.89449003  0.27657856  0.52515915    -0.12200
C1784       C  0.88984643  0.29503948  0.55673195     0.04800
C1785       C  0.88445400  0.27362372  0.58688766    -0.07500
C1786       C  0.88478219  0.23512388  0.58499829    -0.08300
C1787       C  0.89122895  0.21673777  0.55385756    -0.02800
C1788       C  0.89544635  0.23800661  0.52350156     0.04000
N1789       N  0.90282722  0.21978412  0.98842592     0.66500
H1790       H  0.89842552  0.29099540  0.99902000     0.15400
H1791       H  0.88122268  0.21955049  0.60867102     0.15100
N1792       N  0.87983060  0.29016173  0.62003154     0.74200
O1793       O  0.88224978  0.20756890  0.96875103    -0.39300
O1794       O  0.93013224  0.22199772  0.97757483    -0.39200
O1795       O  0.85469205  0.28514969  0.63579730    -0.39900
O1796       O  0.90274300  0.30142658  0.63673168    -0.40000
C1797       C  0.83847750  0.47320268  0.89782804    -0.12200
C1798       C  0.86345118  0.49244063  0.88327210     0.04800
C1799       C  0.89310885  0.48506529  0.89545033    -0.07500
C1800       C  0.89722076  0.46034353  0.92285416    -0.08300
C1801       C  0.87205213  0.44366401  0.93970902    -0.02800
C1802       C  0.84243092  0.44955104  0.92632853     0.04000
N1803       N  0.81605358  0.43294257  0.94226431     0.66500
H1804       H  0.81565880  0.47806968  0.88830198     0.15400
H1805       H  0.92011748  0.45673423  0.93284634     0.15100
N1806       N  0.91936585  0.50303044  0.88065013     0.74200
O1807       O  0.79971495  0.45150931  0.96275100    -0.39300
O1808       O  0.80600271  0.40267263  0.93097637    -0.39200
O1809       O  0.92892020  0.53277701  0.89357391    -0.39900
O1810       O  0.93677821  0.48508078  0.86085671    -0.40000
C1811       C  0.89709303  0.53627288  0.64535837    -0.12200
C1812       C  0.87195710  0.51822891  0.63078722     0.04800
C1813       C  0.84223228  0.52712729  0.64226264    -0.07500
C1814       C  0.83824615  0.55135617  0.67006288    -0.08300
C1815       C  0.86361790  0.56655595  0.68723907    -0.02800
C1816       C  0.89326330  0.55989416  0.67370145     0.04000
N1817       N  0.91983045  0.57502267  0.68974872     0.66500
H1818       H  0.91991581  0.53056052  0.63583347     0.15400
H1819       H  0.81525958  0.55589359  0.67990722     0.15100
N1820       N  0.81592256  0.51126719  0.62619425     0.74200
O1821       O  0.93936616  0.55372601  0.70260715    -0.39300
O1822       O  0.92647922  0.60859469  0.68539931    -0.39200
O1823       O  0.80024895  0.48700433  0.64189994    -0.39900
O1824       O  0.80582750  0.52538312  0.59876686    -0.40000
C1825       C  0.74186301  0.53972180  0.74257924    -0.12200
C1826       C  0.76952796  0.52019679  0.74669556     0.04800
C1827       C  0.77192631  0.48512171  0.73183104    -0.07500
C1828       C  0.74714073  0.47035816  0.71365240    -0.08300
C1829       C  0.71925451  0.48959248  0.71006613    -0.02800
C1830       C  0.71697977  0.52482920  0.72462897     0.02400
N1831       N  0.68978198  0.54605768  0.72124736     0.66500
H1832       H  0.73938888  0.56712244  0.75315059     0.15400
H1833       H  0.74963899  0.44292635  0.70316378     0.15100
N1834       N  0.79873876  0.46338423  0.73622152     0.74200
O1835       O  0.66992375  0.54556981  0.74517685    -0.39300
O1836       O  0.68800842  0.56965859  0.69734848    -0.39200
O1837       O  0.80051481  0.44189019  0.76181038    -0.39900
O1838       O  0.81853482  0.46178934  0.71229965    -0.40000
C1839       C  0.75436527  0.96738736  0.72622014    -0.12200
C1840       C  0.77266933  0.98698685  0.74987318     0.04800
C1841       C  0.76433999  0.02292856  0.75896917    -0.07500
C1842       C  0.73859104  0.03900572  0.74370878    -0.08300
C1843       C  0.72055400  0.01950373  0.71972641    -0.02800
C1844       C  0.72872422  0.98348253  0.71089092     0.04000
N1845       N  0.71259391  0.96405273  0.68458036     0.66500
H1846       H  0.76041095  0.93952840  0.71910500     0.15400
H1847       H  0.73253474  0.06690298  0.75068070     0.15100
N1848       N  0.78075308  0.04252077  0.78495350     0.74200
O1849       O  0.71820511  0.97100354  0.65314173    -0.39300
O1850       O  0.69077113  0.94262790  0.69267326    -0.39200
O1851       O  0.80069785  0.06625758  0.77637662    -0.39900
O1852       O  0.77672982  0.03442576  0.81644643    -0.40000
C1853       C  0.85334252  0.77276247  0.83322340    -0.12200
C1854       C  0.85240277  0.79198093  0.80166587     0.04800
C1855       C  0.85140222  0.77144212  0.77068393    -0.07500
C1856       C  0.85068764  0.73273794  0.77201372    -0.08300
C1857       C  0.85037213  0.71368170  0.80380373    -0.02800
C1858       C  0.85197949  0.73440681  0.83464779     0.04000
N1859       N  0.85080024  0.71724120  0.86795463     0.66500
H1860       H  0.85405323  0.78757757  0.85747226     0.15400
H1861       H  0.84936547  0.71762089  0.74797264     0.15100
N1862       N  0.84985717  0.78924302  0.73775120     0.74200
O1863       O  0.87530138  0.71127831  0.88397894    -0.39300
O1864       O  0.82539729  0.71357643  0.88350491    -0.39200
O1865       O  0.87366827  0.79216755  0.71915968    -0.39900
O1866       O  0.82410048  0.79652547  0.72501303    -0.40000
C1867       C  0.90335431  0.96191447  0.68844410    -0.12200
C1868       C  0.87421153  0.94506725  0.69168136     0.04800
C1869       C  0.85250038  0.95156207  0.66538546    -0.07500
C1870       C  0.85930484  0.97731065  0.63907674    -0.08300
C1871       C  0.88729119  0.99649368  0.63821374    -0.02800
C1872       C  0.90974614  0.98787292  0.66250501     0.04000
N1873       N  0.93797584  0.00788741  0.66335520     0.66500
H1874       H  0.92055553  0.95747426  0.70800322     0.15400
H1875       H  0.84222046  0.98333029  0.61979908     0.15100
N1876       N  0.82298437  0.93401160  0.66591970     0.74200
O1877       O  0.94055187  0.03464905  0.68385552    -0.39300
O1878       O  0.96171253  0.99402645  0.65006931    -0.39200
O1879       O  0.79925163  0.95270150  0.66052779    -0.39900
O1880       O  0.82106898  0.89932637  0.66595507    -0.40000
C1881       C  0.88986882  0.03120386  0.88915274    -0.12200
C1882       C  0.86267696  0.01021759  0.88933574     0.04800
C1883       C  0.84106925  0.01583528  0.91585854    -0.07500
C1884       C  0.84731279  0.04097210  0.94232132    -0.08300
C1885       C  0.87557232  0.06009186  0.94397532    -0.02800
C1886       C  0.89648079  0.05600428  0.91608616     0.04000
N1887       N  0.92503805  0.07547059  0.91539150     0.66500
H1888       H  0.90658423  0.02734174  0.86860521     0.15400
H1889       H  0.83063335  0.04338842  0.96310941     0.15100
N1890       N  0.81340043  0.99464288  0.91746348     0.74200
O1891       O  0.92603241  0.10825967  0.90454640    -0.39300
O1892       O  0.94965795  0.05829944  0.92005493    -0.39200
O1893       O  0.81378381  0.96277566  0.93054676    -0.39900
O1894       O  0.78809845  0.01038345  0.91296483    -0.40000
C1895       C  0.49684657  0.54179321  0.98127214    -0.12200
C1896       C  0.52156035  0.52049299  0.96884871     0.04800
C1897       C  0.02030562  0.48563807  0.97745014    -0.07500
C1898       C  0.99534265  0.46972282  0.99517852    -0.08300
C1899       C  0.96766078  0.48897244  0.00053920    -0.02800
C1900       C  0.96892715  0.52906633  0.49601365     0.04000
N1901       N  0.44253922  0.54880114  0.50604228     0.66500
H1902       H  0.49113839  0.57237430  0.47180488     0.15400
H1903       H  0.99750646  0.44149390  0.00389323     0.15100
N1904       N  0.04708522  0.46410777  0.97145904     0.74200
O1905       O  0.44031474  0.55467394  0.53810949    -0.39300
O1906       O  0.93122428  0.57418424  0.49522972    -0.39200
O1907       O  0.56222569  0.44357251  0.98293031    -0.39900
O1908       O  0.05170431  0.45006151  0.94209248    -0.40000
C1909       C  0.00027410  0.58302499  0.82579903    -0.12200
C1910       C  0.00650140  0.61049779  0.85036032     0.04800
C1911       C  0.98218618  0.63197099  0.86296063    -0.07500
C1912       C  0.95238732  0.62422698  0.85257380    -0.08300
C1913       C  0.94578669  0.59554989  0.82921698    -0.02800
C1914       C  0.97030214  0.57529517  0.81518325     0.04000
N1915       N  0.96559799  0.54771505  0.78948759     0.66500
H1916       H  0.51906047  0.57551378  0.81132057     0.15400
H1917       H  0.93420380  0.64080991  0.86347739     0.15100
N1918       N  0.98721448  0.66184601  0.88626099     0.74200
O1919       O  0.97792230  0.55193922  0.76009135    -0.39300
O1920       O  0.95664457  0.51600759  0.79858072    -0.39200
O1921       O  0.99472986  0.69310964  0.87446759    -0.39900
O1922       O  0.97952265  0.65853821  0.91766489    -0.40000
C1923       C  0.71734979  0.57278308  0.89285456    -0.12200
C1924       C  0.69534288  0.59653271  0.87921629     0.04800
C1925       C  0.70537350  0.62720522  0.85911078    -0.07500
C1926       C  0.73638269  0.63220870  0.85177073    -0.08300
C1927       C  0.75819967  0.60731382  0.86358994    -0.02800
C1928       C  0.74863244  0.57815320  0.88565309     0.04000
N1929       N  0.77007892  0.55293991  0.89993780     0.66500
H1930       H  0.71028776  0.54978700  0.90907311     0.15400
H1931       H  0.74321027  0.65503555  0.83519499     0.15100
N1932       N  0.68446512  0.65284480  0.84438449     0.74200
O1933       O  0.78700177  0.56315883  0.92443120    -0.39300
O1934       O  0.76781215  0.51912742  0.89302545    -0.39200
O1935       O  0.68464636  0.68579447  0.85458985    -0.39900
O1936       O  0.67044385  0.64455970  0.81707089    -0.40000
C1937       C  0.64778505  0.53359849  0.56208824    -0.12200
C1938       C  0.62298780  0.51378372  0.57638004     0.04800
C1939       C  0.59326376  0.52087730  0.56428781    -0.07500
C1940       C  0.58891026  0.54617248  0.53736384    -0.08300
C1941       C  0.61393020  0.56365524  0.52086169    -0.02800
C1942       C  0.64363231  0.55760757  0.53389342     0.04000
N1943       N  0.66988740  0.57436877  0.51783579     0.66500
H1944       H  0.67063578  0.52900861  0.57164429     0.15400
H1945       H  0.56598129  0.54973120  0.52745021     0.15100
N1946       N  0.56727602  0.50182003  0.57854351     0.74200
O1947       O  0.67897215  0.60556363  0.52788767    -0.39300
O1948       O  0.68883978  0.54198158  0.99519284    -0.39200
O1949       O  0.55146125  0.51692979  0.60189228    -0.39900
O1950       O  0.55698862  0.47355312  0.56359031    -0.40000
C1951       C  0.59356524  0.45261194  0.78162067    -0.12200
C1952       C  0.62387393  0.44246300  0.77321342     0.04800
C1953       C  0.64768841  0.45505023  0.79500457    -0.07500
C1954       C  0.64113120  0.48041892  0.82153554    -0.08300
C1955       C  0.61114972  0.49247508  0.82793874    -0.02800
C1956       C  0.58711489  0.47718878  0.80866574     0.04000
N1957       N  0.55632995  0.48890652  0.81416366     0.66500
H1958       H  0.57483439  0.44346012  0.76551069     0.15400
H1959       H  0.65971629  0.49141858  0.83685820     0.15100
N1960       N  0.67877462  0.44397863  0.78955757     0.74200
O1961       O  0.54563362  0.51414205  0.79546896    -0.39300
O1962       O  0.53841162  0.46967105  0.83272785    -0.39200
O1963       O  0.69998273  0.46780917  0.78900310    -0.39900
O1964       O  0.68554126  0.41034172  0.79165496    -0.40000
C1965       C  0.75381342  0.92654375  0.87960983    -0.12200
C1966       C  0.76083966  0.89448090  0.86136588     0.04800
C1967       C  0.73769302  0.86842623  0.85491431    -0.07500
C1968       C  0.70748596  0.87668820  0.86413925    -0.08300
C1969       C  0.70000891  0.91000179  0.88092586    -0.02800
C1970       C  0.72397122  0.93421873  0.89002550     0.04000
N1971       N  0.71911862  0.96593469  0.91089266     0.66500
H1972       H  0.77152230  0.94664175  0.88488745     0.15400
H1973       H  0.68981417  0.85669776  0.85806424     0.15100
N1974       N  0.74458729  0.83343336  0.83974838     0.74200
O1975       O  0.72825839  0.96487557  0.94167514    -0.39300
O1976       O  0.71723753  0.99685146  0.89626985    -0.39200
O1977       O  0.76592176  0.81411111  0.85179012    -0.39900
O1978       O  0.72769744  0.82028020  0.81647403    -0.40000
C1979       C  0.98552404  0.88416897  0.87137695    -0.12200
C1980       C  0.00946113  0.90095828  0.85256711     0.04800
C1981       C  0.00205774  0.92361308  0.82390598    -0.07500
C1982       C  0.97129197  0.93058420  0.81606400    -0.08300
C1983       C  0.94759332  0.91487063  0.83591744    -0.02800
C1984       C  0.95493856  0.89156400  0.86402225     0.04000
N1985       N  0.93164263  0.87721101  0.88692266     0.66500
H1986       H  0.99046099  0.86703474  0.89358950     0.15400
H1987       H  0.96593028  0.94772476  0.79398116     0.15100
N1988       N  0.52295073  0.96169412  0.82424833     0.74200
O1989       O  0.93119063  0.84346094  0.89477817    -0.39300
O1990       O  0.91360614  0.89887277  0.90222154    -0.39200
O1991       O  0.53256757  0.96489910  0.79350405    -0.39900
O1992       O  0.52778885  0.98723315  0.84556746    -0.40000
C1993       C  0.60618146  0.77494501  0.87716765    -0.12200
C1994       C  0.60083210  0.79387189  0.90824692     0.04800
C1995       C  0.59549330  0.77294098  0.93867777    -0.07500
C1996       C  0.59575413  0.73428769  0.93744169    -0.08300
C1997       C  0.59995315  0.71532872  0.90609718    -0.02800
C1998       C  0.60517648  0.73635455  0.87557676     0.04000
N1999       N  0.60845181  0.71937818  0.84241238     0.66500
H2000       H  0.61009379  0.79023899  0.85340114     0.15400
H2001       H  0.59110275  0.71906211  0.96108497     0.15100
N2002       N  0.58755943  0.79026309  0.97061484     0.74200
O2003       O  0.58484734  0.70795025  0.82706672    -0.39300
O2004       O  0.63281021  0.72449251  0.82516615    -0.39200
O2005       O  0.56027291  0.80006381  0.97604885    -0.39900
O2006       O  0.60629986  0.79025541  0.99523132    -0.40000
C2007       C  0.59194151  0.03021811  0.80969758    -0.12200
C2008       C  0.61716532  0.01599102  0.82705059     0.04800
C2009       C  0.64644794  0.03079002  0.81951612    -0.07500
C2010       C  0.65024978  0.05709055  0.79313576    -0.08300
C2011       C  0.62535898  0.06849909  0.77319544    -0.02800
C2012       C  0.59566202  0.05620660  0.78299902     0.04000
N2013       N  0.56914221  0.06849826  0.76508777     0.66500
H2014       H  0.56925588  0.02040739  0.81612549     0.15400
H2015       H  0.67329433  0.06591433  0.78622459     0.15100
N2016       N  0.67281391  0.01894450  0.83778850     0.74200
O2017       O  0.55020676  0.04523041  0.75367564    -0.39300
O2018       O  0.56213636  0.10211621  0.76570100    -0.39200
O2019       O  0.68380369  0.98763461  0.83149938    -0.39900
O2020       O  0.68912054  0.04273143  0.85279860    -0.40000
C2021       C  0.65643206  0.98506137  0.55606225    -0.12200
C2022       C  0.63326404  0.98954120  0.58070756     0.04800
C2023       C  0.60585799  0.96893461  0.57739410    -0.07500
C2024       C  0.60105523  0.94708227  0.54778494    -0.08300
C2025       C  0.62352583  0.94460099  0.52155987    -0.02800
C2026       C  0.65216291  0.96246957  0.52717835     0.04000
N2027       N  0.67871561  0.96286928  0.00116097     0.66500
H2028       H  0.67766830  0.00050146  0.55847254     0.15400
H2029       H  0.57903854  0.93363476  0.54451088     0.15100
N2030       N  0.58214440  0.97134961  0.60302547     0.74200
O2031       O  0.68476929  0.99203268  0.98453375    -0.39300
O2032       O  0.69742006  0.93659031  0.00061430    -0.39200
O2033       O  0.55537410  0.98001293  0.59430233    -0.39900
O2034       O  0.58677261  0.95926115  0.63314315    -0.40000
C2035       C  0.03273764  0.01726632  0.98907462    -0.12200
C2036       C  0.52689254  0.99100319  0.96427176     0.04800
C2037       C  0.49607149  0.98351930  0.95479897    -0.07500
C2038       C  0.97161456  0.99809585  0.47693671    -0.08300
C2039       C  0.97795909  0.02219268  0.00263322    -0.02800
C2040       C  0.00895851  0.03169057  0.00946843     0.04000
N2041       N  0.01684045  0.05432328  0.03823499     0.66500
H2042       H  0.05626876  0.02367966  0.99559095     0.15400
H2043       H  0.94821414  0.99086025  0.47052014     0.15100
N2044       N  0.48672496  0.96718877  0.41936398     0.74200
O2045       O  0.01140946  0.04276254  0.06848335    -0.39300
O2046       O  0.03398819  0.08211361  0.03378192    -0.39200
O2047       O  0.47418228  0.93583902  0.42159138    -0.39900
O2048       O  0.48588259  0.98452964  0.39109460    -0.40000
loop_ 
_geom_bond_atom_site_label_1 
_geom_bond_atom_site_label_2 
_geom_bond_distance 
_geom_bond_site_symmetry_2 
_ccdc_geom_bond_type 
O1          Cr19   1.968       .  S
O1            C9   1.260       .  A
O2          Cr19   2.024       .  S
O2            C3   1.267       .  A
C3            O4   1.257       .  A
C3          C472   1.482   1_565  S
O4          Cr20   1.978       .  S
O5          Cr20   2.056       .  S
O5            C6   1.280       .  A
C6            O7   1.250       .  A
C6          C500   1.484       .  S
O7          Cr21   1.927       .  S
O8          Cr21   2.026       .  S
O8            C9   1.274       .  A
C9         C1468   1.488       .  S
O10         Cr19   2.025       .  S
O10          C18   1.272       .  A
O11         Cr19   1.936       .  S
O11          C12   1.257       .  A
C12          O13   1.275       .  A
C12         C433   1.480       .  S
O13         Cr20   2.032       .  S
O14         Cr20   1.955       .  S
O14          C15   1.247       .  A
C15          O16   1.270       .  A
C15        C1001   1.499       .  S
O16         Cr21   2.048       .  S
O17         Cr21   1.984       .  S
O17          C18   1.263       .  A
C18         C458   1.497       .  S
Cr19         O22   1.758       .  S
Cr20         O22   1.764       .  S
Cr21         O22   1.767       .  S
O23         Cr41   2.013       .  S
O23          C31   1.269       .  A
O24         Cr41   1.939       .  S
O24          C25   1.253       .  A
C25          O26   1.276       .  A
C25         C360   1.476       .  S
O26         Cr42   2.040       .  S
O27         Cr42   1.984       .  S
O27          C28   1.256       .  A
C28          O29   1.266       .  A
C28         C419   1.483       .  S
O29         Cr43   2.023       .  S
O30         Cr43   1.963       .  S
O30          C31   1.260       .  A
C31        C1398   1.482       .  S
O32         Cr41   1.983       .  S
O32          C40   1.264       .  A
O33         Cr41   2.028       .  S
O33          C34   1.267       .  A
C34          O35   1.252       .  A
C34         C917   1.486       .  S
O35         Cr42   1.971       .  S
O36         Cr42   2.029       .  S
O36          C37   1.276       .  A
C37          O38   1.257       .  A
C37         C388   1.481       .  S
O38         Cr43   1.940       .  S
O39         Cr43   2.024       .  S
O39          C40   1.270       .  A
C40         C461   1.498       .  S
Cr41         O44   1.768       .  S
Cr42         O44   1.766       .  S
Cr43         O44   1.764       .  S
O45         Cr63   2.014       .  S
O45          C53   1.270       .  A
O46         Cr63   1.946       .  S
O46          C47   1.253       .  A
C47          O48   1.282       .  A
C47         C304   1.500       .  S
O48         Cr64   2.066       .  S
O49         Cr64   1.981       .  S
O49          C50   1.259       .  A
C50          O51   1.268       .  A
C50         C346   1.483   1_565  S
O51         Cr65   2.025       .  S
O52         Cr65   1.946       .  S
O52          C53   1.257       .  A
C53         C430   1.462       .  S
O54         Cr63   1.985       .  S
O54          C62   1.264       .  A
O55         Cr63   2.043       .  S
O55          C56   1.269       .  A
C56          O57   1.251       .  A
C56         C332   1.493       .  S
O57         Cr64   1.954       .  S
O58         Cr64   2.046       .  S
O58          C59   1.278       .  A
C59          O60   1.253       .  A
C59         C447   1.484       .  S
O60         Cr65   1.937       .  S
O61         Cr65   2.015       .  S
O61          C62   1.269       .  A
C62         C318   1.491       .  S
Cr63         O66   1.768       .  S
Cr64         O66   1.759       .  S
Cr65         O66   1.756       .  S
O67         Cr85   1.966       .  S
O67          C75   1.258       .  A
O68         Cr85   2.017       .  S
O68          C69   1.264       .  A
C69          O70   1.258       .  A
C69         C262   1.485       .  S
O70         Cr86   1.991       .  S
O71         Cr86   2.057       .  S
O71          C72   1.280       .  A
C72          O73   1.251       .  A
C72         C290   1.491       .  S
O73         Cr87   1.936       .  S
O74         Cr87   2.011       .  S
O74          C75   1.269       .  A
C75         C391   1.466       .  S
O76         Cr85   2.021       .  S
O76          C84   1.270       .  A
O77         Cr85   1.937       .  S
O77          C78   1.257       .  A
C78          O79   1.279       .  A
C78         C377   1.480       .  S
O79         Cr86   2.050       .  S
O80         Cr86   1.968       .  S
O80          C81   1.254       .  A
C81          O82   1.269       .  A
C81         C279   1.491       .  S
O82         Cr87   2.034       .  S
O83         Cr87   1.983       .  S
O83          C84   1.264       .  A
C84         C321   1.492       .  S
Cr85         O88   1.759       .  S
Cr86         O88   1.761       .  S
Cr87         O88   1.764       .  S
O89        Cr107   1.979       .  S
O89          C97   1.262       .  A
O90        Cr107   2.027       .  S
O90          C91   1.266       .  A
C91          O92   1.257       .  A
C91         C276   1.482       .  S
O92        Cr108   1.983       .  S
O93        Cr108   2.056       .  S
O93          C94   1.279       .  A
C94          O95   1.250       .  A
C94         C875   1.481       .  S
O95        Cr109   1.931       .  S
O96        Cr109   2.022       .  S
O96          C97   1.272       .  A
C97         C237   1.480       .  S
O98        Cr107   2.029       .  S
O98         C106   1.270       .  A
O99        Cr107   1.952       .  S
O99         C100   1.260       .  A
C100        O101   1.278       .  A
C100        C223   1.484       .  S
O101       Cr108   2.035       .  S
O102       Cr620   1.966       .  S
O102        C103   1.250       .  A
C103        O104   1.269       .  A
C103        C265   1.486       .  S
O104       Cr621   2.040       .  S
O105       Cr109   1.979       .  S
O105        C106   1.262       .  A
C106        C248   1.497       .  S
Cr107       O110   1.759       .  S
Cr108       O614   1.959   1_554  S
Cr108       O110   1.760       .  S
Cr109       O616   2.040   1_554  S
Cr109       O110   1.766       .  S
O111       Cr129   2.024       .  S
O111        C119   1.273       .  A
O112       Cr129   1.940       .  S
O112        C113   1.250       .  A
C113        O114   1.278       .  A
C113       C1015   1.478       .  S
O114       Cr130   2.046       .  S
O115       Cr130   1.974       .  S
O115        C116   1.255       .  A
C116        O117   1.266       .  A
C116        C335   1.475   1_545  S
O117       Cr131   2.024       .  S
O118       Cr131   1.955       .  S
O118        C119   1.259       .  A
C119        C192   1.479       .  S
O120       Cr129   1.988       .  S
O120        C128   1.265       .  A
O121       Cr641   2.056       .  S
O121        C122   1.270       .  A
C122        O123   1.249       .  A
C122        C349   1.500       .  S
O123       Cr642   1.953       .  S
O124       Cr130   2.037       .  S
O124        C125   1.275       .  A
C125        O126   1.257       .  A
C125        C209   1.483       .  S
O126       Cr131   1.941       .  S
O127       Cr131   2.016       .  S
O127        C128   1.271       .  A
C128        C251   1.492       .  S
Cr129       O633   2.059   1_554  S
Cr129       O132   1.768       .  S
Cr130       O635   1.956       .  S
Cr130       O132   1.758       .  S
Cr131       O132   1.758       .  S
O133       Cr151   2.025       .  S
O133        C141   1.273       .  A
O134       Cr151   1.931       .  S
O134        C135   1.250       .  A
C135        O136   1.280       .  A
C135        C293   1.492       .  S
O136       Cr152   2.064       .  S
O137       Cr152   1.987       .  S
O137        C138   1.258       .  A
C138        O139   1.266       .  A
C138        C402   1.480       .  S
O139       Cr153   2.022       .  S
O140       Cr153   1.964       .  S
O140        C141   1.259       .  A
C141        C220   1.472       .  S
O142       Cr151   1.987       .  S
O142        C150   1.264       .  A
O143       Cr151   2.049       .  S
O143        C144   1.271       .  A
C144        O145   1.253       .  A
C144        C416   1.499       .  S
O145       Cr152   1.960       .  S
O146       Cr152   2.050       .  S
O146        C147   1.279       .  A
C147        O148   1.257       .  A
C147        C234   1.483       .  S
O148       Cr153   1.942       .  S
O149       Cr153   2.026       .  S
O149        C150   1.272       .  A
C150        C178   1.500       .  S
Cr151       O154   1.763       .  S
Cr152       O154   1.761       .  S
Cr153       O154   1.755       .  S
O155       Cr173   1.955       .  S
O155        C163   1.257       .  A
O156       Cr173   2.023       .  S
O156        C157   1.267       .  A
C157        O158   1.257       .  A
C157        C486   1.482   1_545  S
O158       Cr174   1.980       .  S
O159       Cr174   2.068       .  S
O159        C160   1.283       .  A
C160        O161   1.254       .  A
C160        C307   1.500       .  S
O161       Cr175   1.942       .  S
O162       Cr175   2.023       .  S
O162        C163   1.272       .  A
C163        C206   1.467       .  S
O164       Cr173   2.028       .  S
O164        C172   1.271       .  A
O165       Cr173   1.936       .  S
O165        C166   1.256       .  A
C166        O167   1.277       .  A
C166        C195   1.486       .  S
O167       Cr174   2.043       .  S
O168       Cr174   1.952       .  S
O168        C169   1.247       .  A
C169        O170   1.269       .  A
C169        C475   1.496       .  S
O170       Cr175   2.045       .  S
O171       Cr175   1.989       .  S
O171        C172   1.265       .  A
C172        C181   1.501       .  S
Cr173       O176   1.757       .  S
Cr174       O176   1.761       .  S
Cr175       O176   1.769       .  S
C177        C178   1.407       .  A
C177        C182   1.403       .  A
C177        H184   1.084       .  S
C178        C179   1.415       .  A
C179        C180   1.409       .  A
C179        N186   1.428       .  S
C180        C181   1.409       .  A
C180        H185   1.083       .  S
C181        C182   1.417       .  A
C182        N183   1.429       .  S
N183        O187   1.262       .  A
N183        O188   1.262       .  A
N186        O190   1.262       .  A
N186        O189   1.262       .  A
C191        C196   1.400   1_655  A
C191       C1216   1.406       .  A
C191        H198   1.081       .  S
C192       C1215   1.407       .  A
C192       C1217   1.404       .  A
C193        C194   1.395       .  A
C193       C1216   1.404   1_455  A
C193       N1224   1.430       .  S
C194        C195   1.414       .  A
C194        H199   1.084       .  S
C195        C196   1.412       .  A
C196        N197   1.430       .  S
N197        O201   1.262       .  A
N197        O202   1.261       .  A
N200       C1217   1.429       .  S
N200        O204   1.262       .  A
N200        O203   1.262       .  A
C205        C206   1.404       .  A
C205        C210   1.399       .  A
C205        H212   1.084       .  S
C206        C207   1.402       .  A
C207        C208   1.394       .  A
C207        N214   1.429       .  S
C208        C209   1.412       .  A
C208        H213   1.084       .  S
C209        C210   1.412       .  A
C210        N211   1.429       .  S
N211        O215   1.262       .  A
N211        O216   1.262       .  A
N214        O218   1.261       .  A
N214        O217   1.262       .  A
C219        C220   1.397       .  A
C219        C224   1.399       .  A
C219        H226   1.084       .  S
C220        C221   1.414       .  A
C221        C222   1.400       .  A
C221        N228   1.430       .  S
C222        C223   1.400       .  A
C222        H227   1.082       .  S
C223        C224   1.417       .  A
C224        N225   1.431       .  S
N225        O229   1.261       .  A
N225        O230   1.262       .  A
N228        O232   1.262       .  A
N228        O231   1.262       .  A
C233        C234   1.400       .  A
C233       C1262   1.406   1_455  A
C233        H240   1.084       .  S
C234        C235   1.418       .  A
C235        C236   1.395       .  A
C235        N242   1.434       .  S
C236       C1261   1.402   1_455  A
C236        H241   1.084   1_455  S
C237        C238   1.414       .  A
C237       C1260   1.399       .  A
C238       C1257   1.401       .  A
C238        N239   1.428       .  S
N239        O243   1.261       .  A
N239        O244   1.262       .  A
N242        O246   1.263       .  A
N242        O245   1.262       .  A
C247        C248   1.411       .  A
C247        C252   1.406       .  A
C247        H766   1.084       .  S
C248        C249   1.419       .  A
C249        C250   1.403       .  A
C249        N256   1.433       .  S
C250        C251   1.405       .  A
C250        H255   1.084       .  S
C251        C252   1.412       .  A
C252        N765   1.429   1_554  S
N253        C764   1.429       .  S
N253        O257   1.262       .  A
N253        O258   1.262       .  A
H254        C759   1.084       .  S
N256        O260   1.262       .  A
N256        O259   1.262       .  A
C261        C262   1.404       .  A
C261        C266   1.409       .  A
C261        H268   1.083       .  S
C262        C263   1.412       .  A
C263        C264   1.401       .  A
C263        N270   1.429       .  S
C264        C265   1.404       .  A
C264        H269   1.084       .  S
C265        C266   1.415       .  A
C266        N267   1.429       .  S
N267        O271   1.262       .  A
N267        O272   1.262       .  A
N270        O274   1.262       .  A
N270        O273   1.262       .  A
C275        C276   1.395       .  A
C275        C280   1.403       .  A
C275        H282   1.079       .  S
C276        C277   1.410       .  A
C277        C278   1.406       .  A
C277        N284   1.429       .  S
C278        C279   1.408       .  A
C278        H283   1.084       .  S
C279        C280   1.416       .  A
C280        N281   1.427       .  S
N281        O285   1.261       .  A
N281        O286   1.262       .  A
N284        O288   1.262       .  A
N284        O287   1.262       .  A
C289        C290   1.418       .  A
C289        C294   1.402       .  A
C289        H296   1.083       .  S
C290        C291   1.404       .  A
C291        C292   1.399       .  A
C291        N298   1.429       .  S
C292        C293   1.418       .  A
C292        H297   1.083       .  S
C293        C294   1.405       .  A
C294        N295   1.429       .  S
N295        O299   1.262       .  A
N295        O300   1.262       .  A
N298        O302   1.261       .  A
N298        O301   1.262       .  A
C303        C304   1.418       .  A
C303        C308   1.406       .  A
C303        H310   1.084       .  S
C304        C305   1.408   1_565  A
C305        C306   1.405       .  A
C305        N312   1.430       .  S
C306        C307   1.417       .  A
C306        H311   1.083       .  S
C307        C308   1.407   1_545  A
C308        N309   1.429       .  S
N309        O313   1.262       .  A
N309        O314   1.261       .  A
N312        O316   1.262       .  A
N312        O315   1.262       .  A
C317        C318   1.405       .  A
C317        C322   1.399       .  A
C317        H324   1.084       .  S
C318        C319   1.415       .  A
C319        C320   1.407       .  A
C319        N326   1.429       .  S
C320        C321   1.408       .  A
C320        H325   1.084       .  S
C321        C322   1.414       .  A
C322        N323   1.429       .  S
N323        O327   1.262       .  A
N323        O328   1.262       .  A
N326        O330   1.262       .  A
N326        O329   1.262       .  A
C331        C332   1.412       .  A
C331        C336   1.400       .  A
C331        H338   1.084       .  S
C332        C333   1.414       .  A
C333        C334   1.406       .  A
C333        N340   1.429       .  S
C334        C335   1.403       .  A
C334        H339   1.082       .  S
C335        C336   1.402       .  A
C336        N337   1.428   1_565  S
N337        O341   1.262       .  A
N337        O342   1.262   1_545  A
N340        O344   1.262       .  A
N340        O343   1.262       .  A
C345        C346   1.407       .  A
C345        C350   1.412       .  A
C345        H352   1.084       .  S
C346        C347   1.406       .  A
C347        C348   1.400       .  A
C347        N354   1.431   1_545  S
C348        C349   1.411       .  A
C348        H353   1.084       .  S
C349        C350   1.414       .  A
C350        N351   1.428       .  S
N351        O355   1.262       .  A
N351        O356   1.262       .  A
N354        O358   1.262       .  A
N354        O357   1.262       .  A
C359        C360   1.412   1_655  A
C359       C1900   1.399       .  A
C359        H878   1.084       .  S
C360       C1385   1.404       .  A
C361        C362   1.397       .  A
C361       C1384   1.404       .  A
C361        N368   1.431       .  S
C362        C363   1.412       .  A
C362        H367   1.084       .  S
C363        C606   1.474       .  S
C363        C876   1.401       .  A
C364       C1895   1.399       .  A
C364        C875   1.401   1_556  A
C364       N1389   1.430   1_556  S
N365       C1388   1.429       .  S
N365        O369   1.262   1_556  A
N365       O1394   1.262       .  A
H366        C871   1.083       .  S
N368        O372   1.262       .  A
N368       O1395   1.262       .  A
O370       N1389   1.262   1_556  A
O371       N1392   1.262       .  A
C373        C374   1.407       .  A
C373        C378   1.403       .  A
C373       H1404   1.082       .  S
C374       C1055   1.482       .  S
C374        C375   1.410       .  A
C375        C376   1.393       .  A
C375        N382   1.430       .  S
C376        C377   1.409       .  A
C376        H381   1.084       .  S
C377        C378   1.409       .  A
C378        N379   1.430       .  S
N379        O383   1.262       .  A
N379        O384   1.262       .  A
H380       C1397   1.082   1_455  S
N382        O386   1.262       .  A
N382        O385   1.262       .  A
C387        C388   1.404       .  A
C387        C392   1.399       .  A
C387        H394   1.084       .  S
C388        C389   1.420       .  A
C389        C390   1.393       .  A
C389        N396   1.430       .  S
C390        C391   1.394       .  A
C390        H395   1.084       .  S
C391        C392   1.411       .  A
C392        N393   1.429       .  S
N393        O397   1.261       .  A
N393        O398   1.262       .  A
N396        O400   1.262       .  A
N396        O399   1.262       .  A
C401        C402   1.400       .  A
C401        C406   1.406       .  A
C401        H408   1.080       .  S
C402        C403   1.409       .  A
C403        C404   1.402       .  A
C403        N410   1.429       .  S
C404        C405   1.406       .  A
C404        H409   1.084       .  S
C405        C546   1.487   1_554  S
C405        C406   1.416       .  A
C406        N407   1.429       .  S
N407        O411   1.262       .  A
N407        O924   1.262   1_554  A
N410        O414   1.262       .  A
N410        O413   1.262       .  A
O412        N919   1.262       .  A
C415        C416   1.412       .  A
C415        C420   1.405       .  A
C415        H422   1.084       .  S
C416        C417   1.417       .  A
C417        C418   1.409       .  A
C417        N424   1.430       .  S
C418        C419   1.404       .  A
C418        H423   1.084       .  S
C419        C420   1.406       .  A
C420        N421   1.430       .  S
N421        O425   1.262       .  A
N421        O426   1.262       .  A
N424        O428   1.262       .  A
N424        O427   1.262       .  A
C429        C430   1.399       .  A
C429        C434   1.393       .  A
C429        H436   1.081       .  S
C430        C431   1.402       .  A
C431        C432   1.395       .  A
C431        N438   1.435       .  S
C432        C433   1.414       .  A
C432        H437   1.083       .  S
C433        C434   1.410       .  A
C434        N435   1.427       .  S
N435        O439   1.261       .  A
N435        O440   1.259       .  A
N438        O442   1.262       .  A
N438        O441   1.263       .  A
C443        C444   1.398       .  A
C443        C448   1.394       .  A
C443        H450   1.084       .  S
C444       C1033   1.481       .  S
C444        C445   1.417       .  A
C445        C446   1.402       .  A
C445       N1476   1.428       .  S
C446        C447   1.401       .  A
C446        H451   1.084       .  S
C447        C448   1.421       .  A
C448        N449   1.430       .  S
N449        O453   1.262       .  A
N449        O454   1.262       .  A
N452       C1469   1.426       .  S
N452        O456   1.262       .  A
N452        O455   1.262       .  A
C457        C458   1.406       .  A
C457        C462   1.403       .  A
C457        H464   1.084       .  S
C458        C459   1.415       .  A
C459        C460   1.406       .  A
C459        N466   1.429       .  S
C460        C461   1.408       .  A
C460        H465   1.083       .  S
C461        C462   1.418       .  A
C462        N463   1.431       .  S
N463        O467   1.262       .  A
N463        O468   1.262       .  A
N466        O470   1.262       .  A
N466        O469   1.262       .  A
C471        C472   1.394       .  A
C471        C476   1.401       .  A
C471        H478   1.050       .  S
C472        C473   1.410       .  A
C473        C474   1.409       .  A
C473        N480   1.426       .  S
C474        C475   1.406       .  A
C474        H479   1.079       .  S
C475        C476   1.419       .  A
C476        N477   1.428       .  S
N477        O481   1.262       .  A
N477        O482   1.262       .  A
N480        O484   1.262       .  A
N480        O483   1.262       .  A
C485        C486   1.394       .  A
C485        C490   1.401       .  A
C485        H492   1.085   1_565  S
C486        C487   1.414       .  A
C487        C488   1.411       .  A
C487        N494   1.431       .  S
C488        C489   1.406       .  A
C488        H493   1.083       .  S
C489        C527   1.501   1_554  S
C489        C490   1.423       .  A
C490       N1003   1.426   1_554  S
N491       C1002   1.426       .  S
N491        O495   1.262       .  A
N491        O496   1.262       .  A
N494        O498   1.262       .  A
N494        O497   1.262       .  A
C499        C504   1.400       .  A
C499       C1524   1.396   1_545  A
C499        H506   1.084       .  S
C500        C501   1.423   1_455  A
C500       C1523   1.397   1_565  A
C501       C2038   1.395       .  A
C501       N1020   1.428       .  S
C502       C2037   1.395       .  A
C502       C1015   1.392   1_566  A
C502        H507   1.084       .  S
C503        C625   1.477       .  S
C503        C504   1.421       .  A
C503       C1014   1.396       .  A
C504        N505   1.432       .  S
N505        O509   1.262       .  A
N505        O510   1.262       .  A
N508       C1013   1.427       .  S
N508        O512   1.262       .  A
N508        O511   1.262       .  A
O513       Cr531   1.968       .  S
O513        C521   1.260       .  A
O514       Cr531   2.024       .  S
O514        C515   1.266       .  A
C515        O516   1.256       .  A
C515        C984   1.480   1_565  S
O516       Cr532   1.979       .  S
O517       Cr532   2.057       .  S
O517        C518   1.280       .  A
C518        O519   1.250       .  A
C518       C1012   1.487       .  S
O519       Cr533   1.932       .  S
O520       Cr533   2.027       .  S
O520        C521   1.275       .  A
C521       C1980   1.489       .  S
O522       Cr531   2.017       .  S
O522        C530   1.271       .  A
O523       Cr531   1.939       .  S
O523        C524   1.257       .  A
C524        O525   1.277       .  A
C524        C945   1.482       .  S
O525       Cr532   2.038       .  S
O526       Cr532   1.956       .  S
O526        C527   1.248       .  A
C527        O528   1.272       .  A
O528       Cr533   2.051       .  S
O529       Cr533   1.986       .  S
O529        C530   1.263       .  A
C530        C970   1.495       .  S
Cr531       O534   1.759       .  S
Cr532       O534   1.760       .  S
Cr533       O534   1.764       .  S
O535       Cr553   2.015       .  S
O535        C543   1.270       .  A
O536       Cr553   1.942       .  S
O536        C537   1.254       .  A
C537        O538   1.278       .  A
C537        C872   1.490       .  S
O538       Cr554   2.051       .  S
O539       Cr554   1.988       .  S
O539        C540   1.257       .  A
C540        O541   1.265       .  A
C540        C931   1.481       .  S
O541       Cr555   2.019       .  S
O542       Cr555   1.963       .  S
O542        C543   1.260       .  A
C543       C1910   1.479       .  S
O544       Cr553   1.984       .  S
O544        C552   1.264       .  A
O545       Cr553   2.030       .  S
O545        C546   1.268       .  A
C546        O547   1.253       .  A
O547       Cr554   1.968       .  S
O548       Cr554   2.041       .  S
O548        C549   1.279       .  A
C549        O550   1.256       .  A
C549        C900   1.486       .  S
O550       Cr555   1.942       .  S
O551       Cr555   2.017       .  S
O551        C552   1.269       .  A
C552        C973   1.495       .  S
Cr553       O556   1.765       .  S
Cr554       O556   1.763       .  S
Cr555       O556   1.761       .  S
O557       Cr575   2.014       .  S
O557        C565   1.271       .  A
O558       Cr575   1.944       .  S
O558        C559   1.254       .  A
C559        O560   1.282       .  A
C559        C816   1.501       .  S
O560       Cr576   2.066       .  S
O561       Cr576   1.985       .  S
O561        C562   1.258       .  A
C562        O563   1.266       .  A
C562        C858   1.484   1_565  S
O563       Cr577   2.024       .  S
O564       Cr577   1.949       .  S
O564        C565   1.259       .  A
C565        C942   1.471       .  S
O566       Cr575   1.990       .  S
O566        C574   1.263       .  A
O567       Cr575   2.034       .  S
O567        C568   1.267       .  A
C568        O569   1.252       .  A
C568        C844   1.493       .  S
O569       Cr576   1.960       .  S
O570       Cr576   2.053       .  S
O570        C571   1.280       .  A
C571        O572   1.253       .  A
C571        C959   1.487       .  S
O572       Cr577   1.936       .  S
O573       Cr577   2.010       .  S
O573        C574   1.268       .  A
C574        C830   1.494       .  S
Cr575       O578   1.770       .  S
Cr576       O578   1.761       .  S
Cr577       O578   1.758       .  S
O579       Cr597   1.969       .  S
O579        C587   1.259       .  A
O580       Cr597   2.015       .  S
O580        C581   1.264       .  A
C581        O582   1.259       .  A
C581        C774   1.482       .  S
O582       Cr598   1.992       .  S
O583       Cr598   2.059       .  S
O583        C584   1.280       .  A
C584        O585   1.252       .  A
C584        C802   1.491       .  S
O585       Cr599   1.937       .  S
O586       Cr599   2.017       .  S
O586        C587   1.270       .  A
C587        C903   1.472       .  S
O588       Cr597   2.021       .  S
O588        C596   1.270       .  A
O589       Cr597   1.940       .  S
O589        C590   1.258       .  A
C590        O591   1.278       .  A
C590        C889   1.477       .  S
O591       Cr598   2.047       .  S
O592       Cr598   1.966       .  S
O592        C593   1.254       .  A
C593        O594   1.268       .  A
C593        C791   1.489       .  S
O594       Cr599   2.028       .  S
O595       Cr599   1.982       .  S
O595        C596   1.262       .  A
C596        C833   1.495       .  S
Cr597       O600   1.758       .  S
Cr598       O600   1.763       .  S
Cr599       O600   1.764       .  S
O601       Cr619   1.983       .  S
O601        C609   1.262       .  A
O602       Cr619   2.020       .  S
O602        C603   1.266       .  A
C603        O604   1.255       .  A
C603        C788   1.473       .  S
O604       Cr620   1.975       .  S
O605       Cr620   2.046       .  S
O605        C606   1.277       .  A
C606        O607   1.252       .  A
O607       Cr621   1.934       .  S
O608       Cr621   2.024       .  S
O608        C609   1.271       .  A
C609        C749   1.485       .  S
O610       Cr619   2.027       .  S
O610        C618   1.271       .  A
O611       Cr619   1.950       .  S
O611        C612   1.258       .  A
C612        O613   1.275       .  A
C612        C735   1.486       .  S
O613       Cr620   2.029       .  S
O614        C615   1.249       .  A
C615        O616   1.270       .  A
C615        C777   1.486       .  S
O617       Cr621   1.974       .  S
O617        C618   1.263       .  A
C618        C760   1.494       .  S
Cr619       O622   1.758       .  S
Cr620       O622   1.763       .  S
Cr621       O622   1.764       .  S
O623       Cr641   2.024       .  S
O623        C631   1.272       .  A
O624       Cr641   1.936       .  S
O624        C625   1.251       .  A
C625        O626   1.278       .  A
O626       Cr642   2.048       .  S
O627       Cr642   1.973       .  S
O627        C628   1.255       .  A
C628        O629   1.268       .  A
C628        C847   1.475   1_545  S
O629       Cr643   2.023       .  S
O630       Cr643   1.951       .  S
O630        C631   1.258       .  A
C631        C704   1.480       .  S
O632       Cr641   1.982       .  S
O632        C640   1.264       .  A
O633        C634   1.273       .  A
C634        O635   1.251   1_556  A
C634        C861   1.503       .  S
O636       Cr642   2.034       .  S
O636        C637   1.274       .  A
C637        O638   1.256       .  A
C637        C721   1.484       .  S
O638       Cr643   1.938       .  S
O639       Cr643   2.016       .  S
O639        C640   1.271       .  A
C640        C763   1.490       .  S
Cr641       O644   1.769       .  S
Cr642       O644   1.756       .  S
Cr643       O644   1.756       .  S
O645       Cr663   2.014       .  S
O645        C653   1.271       .  A
O646       Cr663   1.942       .  S
O646        C647   1.252       .  A
C647        O648   1.278       .  A
C647        C805   1.492       .  S
O648       Cr664   2.055       .  S
O649       Cr664   1.991       .  S
O649        C650   1.258       .  A
C650        O651   1.264       .  A
C650        C914   1.482       .  S
O651       Cr665   2.017       .  S
O652       Cr665   1.971       .  S
O652        C653   1.260       .  A
C653        C732   1.473       .  S
O654       Cr663   1.990       .  S
O654        C662   1.264       .  A
O655       Cr663   2.042       .  S
O655        C656   1.270       .  A
C656        O657   1.253       .  A
C656        C928   1.495       .  S
O657       Cr664   1.962       .  S
O658       Cr664   2.045       .  S
O658        C659   1.280       .  A
C659        O660   1.259       .  A
C659        C746   1.489       .  S
O660       Cr665   1.945       .  S
O661       Cr665   2.021       .  S
O661        C662   1.271       .  A
C662        C690   1.498       .  S
Cr663       O666   1.765       .  S
Cr664       O666   1.761       .  S
Cr665       O666   1.761       .  S
O667       Cr685   1.963       .  S
O667        C675   1.258       .  A
O668       Cr685   2.022       .  S
O668        C669   1.267       .  A
C669        O670   1.256       .  A
C669        C998   1.480   1_545  S
O670       Cr686   1.979       .  S
O671       Cr686   2.066       .  S
O671        C672   1.283       .  A
C672        O673   1.255       .  A
C672        C819   1.499       .  S
O673       Cr687   1.945       .  S
O674       Cr687   2.016       .  S
O674        C675   1.270       .  A
C675        C718   1.474       .  S
O676       Cr685   2.028       .  S
O676        C684   1.272       .  A
O677       Cr685   1.937       .  S
O677        C678   1.256       .  A
C678        O679   1.277       .  A
C678        C707   1.489       .  S
O679       Cr686   2.045       .  S
O680       Cr686   1.962       .  S
O680        C681   1.249       .  A
C681        O682   1.268       .  A
C681        C987   1.488       .  S
O682       Cr687   2.034       .  S
O683       Cr687   1.987       .  S
O683        C684   1.265       .  A
C684        C693   1.500       .  S
Cr685       O688   1.759       .  S
Cr686       O688   1.763       .  S
Cr687       O688   1.768       .  S
C689        C690   1.407       .  A
C689        C694   1.401       .  A
C689        H696   1.084       .  S
C690        C691   1.415       .  A
C691        C692   1.409       .  A
C691        N698   1.429       .  S
C692        C693   1.410       .  A
C692        H697   1.083       .  S
C693        C694   1.416       .  A
C694        N695   1.429       .  S
N695        O699   1.262       .  A
N695        O700   1.262       .  A
N698        O702   1.262       .  A
N698        O701   1.262       .  A
C703       C1728   1.406       .  A
C703        C708   1.401   1_655  A
C703        H710   1.078       .  S
C704       C1727   1.407       .  A
C704       C1729   1.405       .  A
C705       C1728   1.403   1_455  A
C705        C706   1.396       .  A
C705       N1736   1.430       .  S
C706        C707   1.415       .  A
C706        H711   1.083       .  S
C707        C708   1.413       .  A
C708        N709   1.432       .  S
N709        O713   1.262       .  A
N709        O714   1.261       .  A
N712       C1729   1.429       .  S
N712        O716   1.262       .  A
N712        O715   1.262       .  A
C717        C718   1.408       .  A
C717        C722   1.402       .  A
C717        H724   1.084       .  S
C718        C719   1.405       .  A
C719        C720   1.392       .  A
C719        N726   1.430       .  S
C720        C721   1.410       .  A
C720        H725   1.084       .  S
C721        C722   1.411       .  A
C722        N723   1.429       .  S
N723        O727   1.262       .  A
N723        O728   1.262       .  A
N726        O730   1.262       .  A
N726        O729   1.262       .  A
C731        C732   1.397       .  A
C731        C736   1.394       .  A
C731        H738   1.084       .  S
C732        C733   1.412       .  A
C733        C734   1.401       .  A
C733        N740   1.429       .  S
C734        C735   1.405       .  A
C734        H739   1.084       .  S
C735        C736   1.419       .  A
C736        N737   1.429       .  S
N737        O741   1.262       .  A
N737        O742   1.262       .  A
N740        O744   1.262       .  A
N740        O743   1.262       .  A
C745        C746   1.402       .  A
C745       C1774   1.403   1_455  A
C745        H752   1.083       .  S
C746        C747   1.422       .  A
C747        C748   1.402   1_455  A
C747        N754   1.435       .  S
C748       C1773   1.399       .  A
C748        H753   1.084       .  S
C749       C1772   1.400       .  A
C749        C750   1.413       .  A
C750       C1769   1.403       .  A
C750        N751   1.426       .  S
N751        O755   1.261       .  A
N751        O756   1.262       .  A
N754        O758   1.262       .  A
N754        O757   1.263       .  A
C759        C760   1.409       .  A
C759        C764   1.403       .  A
C760        C761   1.417       .  A
C761        C762   1.402       .  A
C761        N768   1.431       .  S
C762        C763   1.405       .  A
C762        H767   1.084       .  S
C763        C764   1.412       .  A
N765        O769   1.262       .  A
N765        O770   1.262       .  A
N768        O772   1.262       .  A
N768        O771   1.262       .  A
C773        C774   1.401       .  A
C773        C778   1.407       .  A
C773        H780   1.082       .  S
C774        C775   1.412       .  A
C775        C776   1.402       .  A
C775        N782   1.429       .  S
C776        C777   1.403       .  A
C776        H781   1.084       .  S
C777        C778   1.418       .  A
C778        N779   1.430       .  S
N779        O783   1.262       .  A
N779        O784   1.261       .  A
N782        O786   1.261       .  A
N782        O785   1.262       .  A
C787        C788   1.394       .  A
C787        C792   1.401       .  A
C787        H794   1.079       .  S
C788        C789   1.407       .  A
C789        C790   1.404       .  A
C789        N796   1.429       .  S
C790        C791   1.409       .  A
C790        H795   1.084       .  S
C791        C792   1.416       .  A
C792        N793   1.427       .  S
N793        O797   1.262       .  A
N793        O798   1.262       .  A
N796        O800   1.262       .  A
N796        O799   1.262       .  A
C801        C802   1.416       .  A
C801        C806   1.401       .  A
C801        H808   1.083       .  S
C802        C803   1.405       .  A
C803        C804   1.402       .  A
C803        N810   1.429       .  S
C804        C805   1.417       .  A
C804        H809   1.083       .  S
C805        C806   1.405       .  A
C806        N807   1.429       .  S
N807        O811   1.262       .  A
N807        O812   1.262       .  A
N810        O814   1.262       .  A
N810        O813   1.262       .  A
C815        C816   1.419       .  A
C815        C820   1.406       .  A
C815        H822   1.083       .  S
C816        C817   1.407   1_565  A
C817        C818   1.405       .  A
C817        N824   1.429       .  S
C818        C819   1.417       .  A
C818        H823   1.083       .  S
C819        C820   1.406   1_545  A
C820        N821   1.430       .  S
N821        O825   1.262       .  A
N821        O826   1.262       .  A
N824        O828   1.262       .  A
N824        O827   1.262       .  A
C829        C830   1.406       .  A
C829        C834   1.398       .  A
C829        H836   1.084       .  S
C830        C831   1.414       .  A
C831        C832   1.407       .  A
C831        N838   1.429       .  S
C832        C833   1.409       .  A
C832        H837   1.083       .  S
C833        C834   1.415       .  A
C834        N835   1.429       .  S
N835        O839   1.262       .  A
N835        O840   1.262       .  A
N838        O842   1.262       .  A
N838        O841   1.262       .  A
C843        C844   1.410       .  A
C843        C848   1.402       .  A
C843        H850   1.084       .  S
C844        C845   1.416       .  A
C845        C846   1.405       .  A
C845        N852   1.429       .  S
C846        C847   1.402       .  A
C846        H851   1.084       .  S
C847        C848   1.405       .  A
C848        N849   1.429   1_565  S
N849        O853   1.262       .  A
N849        O854   1.262   1_545  A
N852        O856   1.262       .  A
N852        O855   1.262       .  A
C857        C858   1.406       .  A
C857        C862   1.412       .  A
C857        H864   1.084       .  S
C858        C859   1.403       .  A
C859        C860   1.402       .  A
C859        N866   1.427   1_545  S
C860        C861   1.413       .  A
C860        H865   1.084       .  S
C861        C862   1.416       .  A
C862        N863   1.428       .  S
N863        O867   1.262       .  A
N863        O868   1.261       .  A
N866        O870   1.262   1_565  A
N866        O869   1.262       .  A
C871        C872   1.415   1_655  A
C871       C1388   1.401       .  A
C872       C1897   1.406       .  A
C873       C1896   1.403       .  A
C873        C874   1.401       .  A
C873        N880   1.429       .  S
C874        C875   1.415   1_556  A
C874        H879   1.084       .  S
C876       C1383   1.397       .  A
C876       N1901   1.430       .  S
N877       C1900   1.431       .  S
N877        O881   1.262       .  A
N877       O1906   1.262       .  A
N880        O884   1.262       .  A
N880       O1907   1.262       .  A
O882       N1901   1.262       .  A
O883       N1904   1.262       .  A
C885        C886   1.407       .  A
C885        C890   1.402       .  A
C885       H1916   1.082       .  S
C886       C1567   1.482       .  S
C886        C887   1.411       .  A
C887        C888   1.393       .  A
C887        N894   1.430       .  S
C888        C889   1.407       .  A
C888        H893   1.084       .  S
C889        C890   1.407       .  A
C890        N891   1.428       .  S
N891        O895   1.262       .  A
N891        O896   1.262       .  A
H892       C1909   1.082       .  S
N894        O898   1.262       .  A
N894        O897   1.262       .  A
C899        C900   1.403       .  A
C899        C904   1.401       .  A
C899        H906   1.084       .  S
C900        C901   1.422       .  A
C901        C902   1.396       .  A
C901        N908   1.430       .  S
C902        C903   1.396       .  A
C902        H907   1.084       .  S
C903        C904   1.412       .  A
C904        N905   1.429       .  S
N905        O909   1.261       .  A
N905        O910   1.262       .  A
N908        O912   1.262       .  A
N908        O911   1.262       .  A
C913        C914   1.403       .  A
C913        C918   1.408       .  A
C913        H920   1.082       .  S
C914        C915   1.410       .  A
C915        C916   1.401       .  A
C915        N922   1.429       .  S
C916        C917   1.405       .  A
C916        H921   1.084       .  S
C917        C918   1.414       .  A
C918        N919   1.429       .  S
N919        O923   1.262       .  A
N922        O926   1.262       .  A
N922        O925   1.261       .  A
C927        C928   1.411       .  A
C927        C932   1.405       .  A
C927        H934   1.084       .  S
C928        C929   1.418       .  A
C929        C930   1.408       .  A
C929        N936   1.433       .  S
C930        C931   1.403       .  A
C930        H935   1.084       .  S
C931        C932   1.407       .  A
C932        N933   1.430       .  S
N933        O937   1.262       .  A
N933        O938   1.262       .  A
N936        O940   1.262       .  A
N936        O939   1.262       .  A
C941        C942   1.402       .  A
C941        C946   1.395       .  A
C941        H948   1.079       .  S
C942        C943   1.406       .  A
C943        C944   1.397       .  A
C943        N950   1.435       .  S
C944        C945   1.413       .  A
C944        H949   1.083       .  S
C945        C946   1.410       .  A
C946        N947   1.429       .  S
N947        O951   1.262       .  A
N947        O952   1.261       .  A
N950        O954   1.262       .  A
N950        O953   1.263       .  A
C955        C956   1.398       .  A
C955        C960   1.396       .  A
C955        H962   1.084       .  S
C956       C1545   1.484       .  S
C956        C957   1.416       .  A
C957        C958   1.403       .  A
C957       N1988   1.426       .  S
C958        C959   1.400       .  A
C958        H963   1.084       .  S
C959        C960   1.423       .  A
C960        N961   1.431       .  S
N961        O965   1.262       .  A
N961        O966   1.262       .  A
N964       C1981   1.428       .  S
N964        O968   1.261       .  A
N964        O967   1.262       .  A
C969        C970   1.405       .  A
C969        C974   1.399       .  A
C969        H976   1.084       .  S
C970        C971   1.415       .  A
C971        C972   1.407       .  A
C971        N978   1.429       .  S
C972        C973   1.408       .  A
C972        H977   1.083       .  S
C973        C974   1.417       .  A
C974        N975   1.430       .  S
N975        O979   1.262       .  A
N975        O980   1.262       .  A
N978        O982   1.262       .  A
N978        O981   1.262       .  A
C983        C984   1.399       .  A
C983        C988   1.405       .  A
C983        H990   1.082       .  S
C984        C985   1.413       .  A
C985        C986   1.403       .  A
C985        N992   1.430       .  S
C986        C987   1.403       .  A
C986        H991   1.084       .  S
C987        C988   1.416       .  A
C988        N989   1.428       .  S
N989        O993   1.261       .  A
N989        O994   1.262       .  A
N992        O996   1.262       .  A
N992        O995   1.261   1_545  A
C997        C998   1.393       .  A
C997       C1002   1.400       .  A
C997       H1004   1.085   1_565  S
C998        C999   1.413       .  A
C999       C1000   1.410       .  A
C999       N1006   1.430       .  S
C1000      C1001   1.406       .  A
C1000      H1005   1.083       .  S
C1001      C1002   1.423       .  A
N1003      O1007   1.262       .  A
N1003      O1008   1.262   1_556  A
N1006      O1010   1.262       .  A
N1006      O1009   1.262       .  A
C1011      C2036   1.398   1_545  A
C1011      C1016   1.403   1_556  A
C1011      H1018   1.084   1_556  S
C1012      C2035   1.398   1_565  A
C1012      C1013   1.422   1_455  A
C1013      C1526   1.396       .  A
C1014      C1525   1.397   1_545  A
C1014      H1019   1.084   1_545  S
C1015      C1016   1.420       .  A
C1016      N1017   1.430       .  S
N1017      O1021   1.261       .  A
N1017      O1022   1.262       .  A
N1020      O1024   1.261       .  A
N1020      O1023   1.262       .  A
O1025     Cr1043   1.963       .  S
O1025      C1033   1.260       .  A
O1026     Cr1043   2.022       .  S
O1026      C1027   1.264       .  A
C1027      O1028   1.256       .  A
C1027      C1496   1.481   1_565  S
O1028     Cr1044   1.983       .  S
O1029     Cr1044   2.043       .  S
O1029      C1030   1.276       .  A
C1030      O1031   1.250       .  A
C1030      C1524   1.477       .  S
O1031     Cr1045   1.937       .  S
O1032     Cr1045   2.025       .  S
O1032      C1033   1.275       .  A
O1034     Cr1043   2.015       .  S
O1034      C1042   1.270       .  A
O1035     Cr1043   1.936       .  S
O1035      C1036   1.257       .  A
C1036      O1037   1.275       .  A
C1036      C1457   1.477       .  S
O1037     Cr1044   2.034       .  S
O1038     Cr1044   1.958       .  S
O1038      C1039   1.251       .  A
C1039      O1040   1.273       .  A
C1039      C2025   1.504       .  S
O1040     Cr1045   2.054       .  S
O1041     Cr1045   1.992       .  S
O1041      C1042   1.264       .  A
C1042      C1482   1.497       .  S
Cr1043     O1046   1.758       .  S
Cr1044     O1046   1.759       .  S
Cr1045     O1046   1.764       .  S
O1047     Cr1065   2.013       .  S
O1047      C1055   1.269       .  A
O1048     Cr1065   1.937       .  S
O1048      C1049   1.252       .  A
C1049      O1050   1.276       .  A
C1049      C1384   1.477       .  S
O1050     Cr1066   2.041       .  S
O1051     Cr1066   1.983       .  S
O1051      C1052   1.255       .  A
C1052      O1053   1.265       .  A
C1052      C1443   1.480       .  S
O1053     Cr1067   2.022       .  S
O1054     Cr1067   1.965       .  S
O1054      C1055   1.261       .  A
O1056     Cr1065   1.984       .  S
O1056      C1064   1.264       .  A
O1057     Cr1065   2.031       .  S
O1057      C1058   1.268       .  A
C1058      O1059   1.252       .  A
C1058      C1941   1.487       .  S
O1059     Cr1066   1.969       .  S
O1060     Cr1066   2.033       .  S
O1060      C1061   1.277       .  A
C1061      O1062   1.257       .  A
C1061      C1412   1.480       .  S
O1062     Cr1067   1.940       .  S
O1063     Cr1067   2.020       .  S
O1063      C1064   1.270       .  A
C1064      C1485   1.497       .  S
Cr1065     O1068   1.766       .  S
Cr1066     O1068   1.764       .  S
Cr1067     O1068   1.761       .  S
O1069     Cr1087   2.009       .  S
O1069      C1077   1.269       .  A
O1070     Cr1087   1.941       .  S
O1070      C1071   1.252       .  A
C1071      O1072   1.281       .  A
C1071      C1328   1.493       .  S
O1072     Cr1088   2.064       .  S
O1073     Cr1088   1.980       .  S
O1073      C1074   1.257       .  A
C1074      O1075   1.268       .  A
C1074      C1370   1.483   1_565  S
O1075     Cr1089   2.030       .  S
O1076     Cr1089   1.949       .  S
O1076      C1077   1.258       .  A
C1077      C1454   1.471       .  S
O1078     Cr1087   1.984       .  S
O1078      C1086   1.263       .  A
O1079     Cr1087   2.036       .  S
O1079      C1080   1.268       .  A
C1080      O1081   1.252       .  A
C1080      C1356   1.494       .  S
O1081     Cr1088   1.961       .  S
O1082     Cr1088   2.047       .  S
O1082      C1083   1.279       .  A
C1083      O1084   1.254       .  A
C1083      C1471   1.479       .  S
O1084     Cr1089   1.936       .  S
O1085     Cr1089   2.021       .  S
O1085      C1086   1.270       .  A
C1086      C1342   1.494       .  S
Cr1087     O1090   1.767       .  S
Cr1088     O1090   1.762       .  S
Cr1089     O1090   1.761       .  S
O1091     Cr1109   1.966       .  S
O1091      C1099   1.259       .  A
O1092     Cr1109   2.017       .  S
O1092      C1093   1.264       .  A
C1093      O1094   1.258       .  A
C1093      C1286   1.483       .  S
O1094     Cr1110   1.990       .  S
O1095     Cr1110   2.057       .  S
O1095      C1096   1.279       .  A
C1096      O1097   1.253       .  A
C1096      C1314   1.494       .  S
O1097     Cr1111   1.939       .  S
O1098     Cr1111   2.015       .  S
O1098      C1099   1.270       .  A
C1099      C1415   1.466       .  S
O1100     Cr1109   2.021       .  S
O1100      C1108   1.270       .  A
O1101     Cr1109   1.938       .  S
O1101      C1102   1.258       .  A
C1102      O1103   1.279       .  A
C1102      C1401   1.480       .  S
O1103     Cr1110   2.048       .  S
O1104     Cr1110   1.965       .  S
O1104      C1105   1.253       .  A
C1105      O1106   1.269       .  A
C1105      C1303   1.490       .  S
O1106     Cr1111   2.035       .  S
O1107     Cr1111   1.987       .  S
O1107      C1108   1.264       .  A
C1108      C1345   1.496       .  S
Cr1109     O1112   1.759       .  S
Cr1110     O1112   1.761       .  S
Cr1111     O1112   1.765       .  S
O1113     Cr1131   1.976       .  S
O1113      C1121   1.260       .  A
O1114     Cr1131   2.021       .  S
O1114      C1115   1.265       .  A
C1115      O1116   1.257       .  A
C1115      C1300   1.477       .  S
O1116     Cr1132   1.979       .  S
O1117     Cr1132   2.056       .  S
O1117      C1118   1.280       .  A
C1118      O1119   1.253       .  A
C1118      C1899   1.489       .  S
O1119     Cr1133   1.940       .  S
O1120     Cr1133   2.015       .  S
O1120      C1121   1.271       .  A
C1121      C1261   1.489       .  S
O1122     Cr1131   2.027       .  S
O1122      C1130   1.271       .  A
O1123     Cr1131   1.942       .  S
O1123      C1124   1.257       .  A
C1124      O1125   1.276       .  A
C1124      C1247   1.473       .  S
O1125     Cr1132   2.040       .  S
O1126     Cr1644   1.965       .  S
O1126      C1127   1.250       .  A
C1127      O1128   1.269       .  A
C1127      C1289   1.483       .  S
O1128     Cr1645   2.036       .  S
O1129     Cr1133   1.979       .  S
O1129      C1130   1.263       .  A
C1130      C1272   1.494       .  S
Cr1131     O1134   1.760       .  S
Cr1132     O1638   1.968   1_554  S
Cr1132     O1134   1.764       .  S
Cr1133     O1640   2.031   1_554  S
Cr1133     O1134   1.763       .  S
O1135     Cr1153   2.023       .  S
O1135      C1143   1.273       .  A
O1136     Cr1153   1.943       .  S
O1136      C1137   1.251       .  A
C1137      O1138   1.279       .  A
C1137      C2039   1.484       .  S
O1138     Cr1154   2.049       .  S
O1139     Cr1154   1.977       .  S
O1139      C1140   1.255       .  A
C1140      O1141   1.267       .  A
C1140      C1359   1.477   1_545  S
O1141     Cr1155   2.024       .  S
O1142     Cr1155   1.950       .  S
O1142      C1143   1.259       .  A
C1143      C1216   1.477       .  S
O1144     Cr1153   1.987       .  S
O1144      C1152   1.264       .  A
O1145     Cr1665   2.060       .  S
O1145      C1146   1.272       .  A
C1146      O1147   1.249       .  A
C1146      C1373   1.501       .  S
O1147     Cr1666   1.953       .  S
O1148     Cr1154   2.043       .  S
O1148      C1149   1.277       .  A
C1149      O1150   1.256       .  A
C1149      C1233   1.485       .  S
O1150     Cr1155   1.936       .  S
O1151     Cr1155   2.013       .  S
O1151      C1152   1.270       .  A
C1152      C1275   1.492       .  S
Cr1153     O1657   2.054   1_554  S
Cr1153     O1156   1.768       .  S
Cr1154     O1659   1.955       .  S
Cr1154     O1156   1.756       .  S
Cr1155     O1156   1.758       .  S
O1157     Cr1175   2.012       .  S
O1157      C1165   1.271       .  A
O1158     Cr1175   1.941       .  S
O1158      C1159   1.253       .  A
C1159      O1160   1.279       .  A
C1159      C1317   1.494       .  S
O1160     Cr1176   2.057       .  S
O1161     Cr1176   1.986       .  S
O1161      C1162   1.257       .  A
C1162      O1163   1.265       .  A
C1162      C1426   1.480       .  S
O1163     Cr1177   2.018       .  S
O1164     Cr1177   1.972       .  S
O1164      C1165   1.259       .  A
C1165      C1244   1.483       .  S
O1166     Cr1175   1.985       .  S
O1166      C1174   1.264       .  A
O1167     Cr1175   2.039       .  S
O1167      C1168   1.268       .  A
C1168      O1169   1.252       .  A
C1168      C1440   1.496       .  S
O1169     Cr1176   1.963       .  S
O1170     Cr1176   2.042       .  S
O1170      C1171   1.279       .  A
C1171      O1172   1.258       .  A
C1171      C1258   1.487       .  S
O1172     Cr1177   1.945       .  S
O1173     Cr1177   2.024       .  S
O1173      C1174   1.272       .  A
C1174      C1202   1.498       .  S
Cr1175     O1178   1.764       .  S
Cr1176     O1178   1.760       .  S
Cr1177     O1178   1.764       .  S
O1179     Cr1197   1.962       .  S
O1179      C1187   1.257       .  A
O1180     Cr1197   2.021       .  S
O1180      C1181   1.267       .  A
C1181      O1182   1.257       .  A
C1181      C1510   1.482   1_545  S
O1182     Cr1198   1.981       .  S
O1183     Cr1198   2.065       .  S
O1183      C1184   1.284       .  A
C1184      O1185   1.255       .  A
C1184      C1331   1.491       .  S
O1185     Cr1199   1.941       .  S
O1186     Cr1199   2.019       .  S
O1186      C1187   1.271       .  A
C1187      C1230   1.475       .  S
O1188     Cr1197   2.031       .  S
O1188      C1196   1.272       .  A
O1189     Cr1197   1.932       .  S
O1189      C1190   1.255       .  A
C1190      O1191   1.278       .  A
C1190      C1219   1.487       .  S
O1191     Cr1198   2.048       .  S
O1192     Cr1198   1.967       .  S
O1192      C1193   1.250       .  A
C1193      O1194   1.266       .  A
C1193      C1499   1.485       .  S
O1194     Cr1199   2.030       .  S
O1195     Cr1199   1.981       .  S
O1195      C1196   1.263       .  A
C1196      C1205   1.498       .  S
Cr1197     O1200   1.760       .  S
Cr1198     O1200   1.764       .  S
Cr1199     O1200   1.768       .  S
C1201      C1202   1.408       .  A
C1201      C1206   1.403       .  A
C1201      H1208   1.083       .  S
C1202      C1203   1.415       .  A
C1203      C1204   1.406       .  A
C1203      N1210   1.429       .  S
C1204      C1205   1.409       .  A
C1204      H1209   1.083       .  S
C1205      C1206   1.415       .  A
C1206      N1207   1.429       .  S
N1207      O1211   1.262       .  A
N1207      O1212   1.262       .  A
N1210      O1214   1.262       .  A
N1210      O1213   1.262       .  A
C1215      C1220   1.401       .  A
C1215      H1222   1.080       .  S
C1217      C1218   1.395       .  A
C1218      C1219   1.414       .  A
C1218      H1223   1.083       .  S
C1219      C1220   1.409       .  A
C1220      N1221   1.428       .  S
N1221      O1225   1.261       .  A
N1221      O1226   1.261       .  A
N1224      O1228   1.262       .  A
N1224      O1227   1.262       .  A
C1229      C1230   1.408       .  A
C1229      C1234   1.403       .  A
C1229      H1236   1.084       .  S
C1230      C1231   1.404       .  A
C1231      C1232   1.393       .  A
C1231      N1238   1.431       .  S
C1232      C1233   1.412       .  A
C1232      H1237   1.084       .  S
C1233      C1234   1.410       .  A
C1234      N1235   1.428       .  S
N1235      O1239   1.262       .  A
N1235      O1240   1.262       .  A
N1238      O1242   1.262       .  A
N1238      O1241   1.262       .  A
C1243      C1244   1.401       .  A
C1243      C1248   1.390       .  A
C1243      H1250   1.084       .  S
C1244      C1245   1.419       .  A
C1245      C1246   1.406       .  A
C1245      N1252   1.430       .  S
C1246      C1247   1.400       .  A
C1246      H1251   1.084       .  S
C1247      C1248   1.412       .  A
C1248      N1249   1.432       .  S
N1249      O1253   1.262       .  A
N1249      O1254   1.261       .  A
N1252      O1256   1.262       .  A
N1252      O1255   1.262       .  A
C1257      C1258   1.400       .  A
C1257      H1264   1.083       .  S
C1258      C1259   1.422       .  A
C1259      C1260   1.403       .  A
C1259      N1266   1.435       .  S
C1260      H1265   1.084       .  S
C1261      C1262   1.420       .  A
C1262      N1263   1.429       .  S
N1263      O1267   1.262       .  A
N1263      O1268   1.261       .  A
N1266      O1270   1.262       .  A
N1266      O1269   1.263       .  A
C1271      C1272   1.409       .  A
C1271      C1276   1.406       .  A
C1271      H1790   1.083   1_554  S
C1272      C1273   1.414       .  A
C1273      C1274   1.400       .  A
C1273      N1280   1.429       .  S
C1274      C1275   1.405       .  A
C1274      H1279   1.084       .  S
C1275      C1276   1.414       .  A
C1276      N1789   1.429   1_554  S
N1277      C1788   1.429       .  S
N1277      O1281   1.262       .  A
N1277      O1282   1.262       .  A
H1278      C1783   1.083       .  S
N1280      O1284   1.262       .  A
N1280      O1283   1.262       .  A
C1285      C1286   1.403       .  A
C1285      C1290   1.408       .  A
C1285      H1292   1.083       .  S
C1286      C1287   1.412       .  A
C1287      C1288   1.400       .  A
C1287      N1294   1.429       .  S
C1288      C1289   1.403       .  A
C1288      H1293   1.084       .  S
C1289      C1290   1.415       .  A
C1290      N1291   1.429       .  S
N1291      O1295   1.262       .  A
N1291      O1296   1.262       .  A
N1294      O1298   1.261       .  A
N1294      O1297   1.262       .  A
C1299      C1300   1.395       .  A
C1299      C1304   1.403       .  A
C1299      H1306   1.082       .  S
C1300      C1301   1.410       .  A
C1301      C1302   1.406       .  A
C1301      N1308   1.431       .  S
C1302      C1303   1.408       .  A
C1302      H1307   1.084       .  S
C1303      C1304   1.417       .  A
C1304      N1305   1.427       .  S
N1305      O1309   1.261       .  A
N1305      O1310   1.262       .  A
N1308      O1312   1.262       .  A
N1308      O1311   1.262       .  A
C1313      C1314   1.417       .  A
C1313      C1318   1.401       .  A
C1313      H1320   1.083       .  S
C1314      C1315   1.407       .  A
C1315      C1316   1.403       .  A
C1315      N1322   1.430       .  S
C1316      C1317   1.417       .  A
C1316      H1321   1.083       .  S
C1317      C1318   1.406       .  A
C1318      N1319   1.429       .  S
N1319      O1323   1.262       .  A
N1319      O1324   1.262       .  A
N1322      O1326   1.262       .  A
N1322      O1325   1.262       .  A
C1327      C1328   1.417       .  A
C1327      C1332   1.404       .  A
C1327      H1334   1.083       .  S
C1328      C1329   1.405   1_565  A
C1329      C1330   1.406       .  A
C1329      N1336   1.431       .  S
C1330      C1331   1.416       .  A
C1330      H1335   1.084       .  S
C1331      C1332   1.403   1_545  A
C1332      N1333   1.431       .  S
N1333      O1337   1.263       .  A
N1333      O1338   1.262       .  A
N1336      O1340   1.262       .  A
N1336      O1339   1.262       .  A
C1341      C1342   1.406       .  A
C1341      C1346   1.401       .  A
C1341      H1348   1.084       .  S
C1342      C1343   1.415       .  A
C1343      C1344   1.407       .  A
C1343      N1350   1.429       .  S
C1344      C1345   1.408       .  A
C1344      H1349   1.083       .  S
C1345      C1346   1.416       .  A
C1346      N1347   1.429       .  S
N1347      O1351   1.262       .  A
N1347      O1352   1.262       .  A
N1350      O1354   1.262       .  A
N1350      O1353   1.262       .  A
C1355      C1356   1.411       .  A
C1355      C1360   1.403       .  A
C1355      H1362   1.084       .  S
C1356      C1357   1.417       .  A
C1357      C1358   1.406       .  A
C1357      N1364   1.431       .  S
C1358      C1359   1.402       .  A
C1358      H1363   1.084       .  S
C1359      C1360   1.405       .  A
C1360      N1361   1.428   1_565  S
N1361      O1365   1.262       .  A
N1361      O1366   1.262   1_545  A
N1364      O1368   1.262       .  A
N1364      O1367   1.262       .  A
C1369      C1370   1.406       .  A
C1369      C1374   1.411       .  A
C1369      H1376   1.084       .  S
C1370      C1371   1.403       .  A
C1371      C1372   1.402       .  A
C1371      N1378   1.428   1_545  S
C1372      C1373   1.414       .  A
C1372      H1377   1.084       .  S
C1373      C1374   1.415       .  A
C1374      N1375   1.429       .  S
N1375      O1379   1.262       .  A
N1375      O1380   1.262       .  A
N1378      O1382   1.262   1_565  A
N1378      O1381   1.262       .  A
C1383      C1384   1.413       .  A
C1383      H1902   1.083       .  S
C1385      C1386   1.397   1_455  A
C1385      N1392   1.430       .  S
C1386      C1387   1.410       .  A
C1386      H1391   1.084       .  S
C1387      C1630   1.473       .  S
C1387      C1900   1.402       .  A
C1388      C1899   1.404   1_556  A
N1389      O1393   1.262       .  A
H1390      C1895   1.083       .  S
N1392      O1396   1.262       .  A
C1397      C1398   1.407   1_655  A
C1397      C1402   1.402       .  A
C1398      C1399   1.410   1_455  A
C1399      C1400   1.393       .  A
C1399      N1406   1.430       .  S
C1400      C1401   1.409       .  A
C1400      H1405   1.084       .  S
C1401      C1402   1.409       .  A
C1402      N1403   1.430       .  S
N1403      O1407   1.262       .  A
N1403      O1408   1.262       .  A
N1406      O1410   1.262       .  A
N1406      O1409   1.262       .  A
C1411      C1412   1.403       .  A
C1411      C1416   1.399       .  A
C1411      H1418   1.084       .  S
C1412      C1413   1.420       .  A
C1413      C1414   1.394       .  A
C1413      N1420   1.430       .  S
C1414      C1415   1.395       .  A
C1414      H1419   1.084       .  S
C1415      C1416   1.411       .  A
C1416      N1417   1.429       .  S
N1417      O1421   1.261       .  A
N1417      O1422   1.262       .  A
N1420      O1424   1.262       .  A
N1420      O1423   1.262       .  A
C1425      C1426   1.401       .  A
C1425      C1430   1.408       .  A
C1425      H1432   1.083       .  S
C1426      C1427   1.408       .  A
C1427      C1428   1.402       .  A
C1427      N1434   1.429       .  S
C1428      C1429   1.407       .  A
C1428      H1433   1.084       .  S
C1429      C1570   1.491   1_554  S
C1429      C1430   1.417       .  A
C1430      N1431   1.429       .  S
N1431      O1435   1.262       .  A
N1431      O1948   1.262   1_554  A
N1434      O1438   1.262       .  A
N1434      O1437   1.262       .  A
O1436      N1943   1.262       .  A
C1439      C1440   1.411       .  A
C1439      C1444   1.405       .  A
C1439      H1446   1.084       .  S
C1440      C1441   1.418       .  A
C1441      C1442   1.408       .  A
C1441      N1448   1.433       .  S
C1442      C1443   1.402       .  A
C1442      H1447   1.084       .  S
C1443      C1444   1.405       .  A
C1444      N1445   1.428       .  S
N1445      O1449   1.261       .  A
N1445      O1450   1.262       .  A
N1448      O1452   1.262       .  A
N1448      O1451   1.262       .  A
C1453      C1454   1.404       .  A
C1453      C1458   1.397       .  A
C1453      H1460   1.080       .  S
C1454      C1455   1.406       .  A
C1455      C1456   1.393       .  A
C1455      N1462   1.434       .  S
C1456      C1457   1.411       .  A
C1456      H1461   1.084       .  S
C1457      C1458   1.412       .  A
C1458      N1459   1.432       .  S
N1459      O1463   1.262       .  A
N1459      O1464   1.261       .  A
N1462      O1466   1.262       .  A
N1462      O1465   1.263       .  A
C1467      C1468   1.403   1_655  A
C1467      C1472   1.398       .  A
C1467      H1474   1.084       .  S
C1468      C1469   1.420       .  A
C1469      C1470   1.401   1_455  A
C1470      C1471   1.395       .  A
C1470      H1475   1.084       .  S
C1471      C1472   1.419       .  A
C1472      N1473   1.434       .  S
N1473      O1477   1.262       .  A
N1473      O1478   1.263       .  A
N1476      O1480   1.261       .  A
N1476      O1479   1.262       .  A
C1481      C1482   1.407       .  A
C1481      C1486   1.399       .  A
C1481      H1488   1.084       .  S
C1482      C1483   1.415       .  A
C1483      C1484   1.408       .  A
C1483      N1490   1.428       .  S
C1484      C1485   1.409       .  A
C1484      H1489   1.083       .  S
C1485      C1486   1.416       .  A
C1486      N1487   1.430       .  S
N1487      O1491   1.262       .  A
N1487      O1492   1.262       .  A
N1490      O1494   1.262       .  A
N1490      O1493   1.262       .  A
C1495      C1496   1.400       .  A
C1495      C1500   1.405       .  A
C1495      H1502   1.080       .  S
C1496      C1497   1.412       .  A
C1497      C1498   1.402       .  A
C1497      N1504   1.430       .  S
C1498      C1499   1.404       .  A
C1498      H1503   1.084       .  S
C1499      C1500   1.414       .  A
C1500      N1501   1.428       .  S
N1501      O1505   1.261       .  A
N1501      O1506   1.262       .  A
N1504      O1508   1.262       .  A
N1504      O1507   1.262   1_545  A
C1509      C1510   1.393       .  A
C1509      C1514   1.400       .  A
C1509      H1516   1.085   1_565  S
C1510      C1511   1.414       .  A
C1511      C1512   1.412       .  A
C1511      N1518   1.431       .  S
C1512      C1513   1.405       .  A
C1512      H1517   1.083       .  S
C1513      C1551   1.502   1_554  S
C1513      C1514   1.423       .  A
C1514      N2027   1.425       .  S
N1515      C2026   1.426       .  S
N1515      O1519   1.262       .  A
N1515      O1520   1.262       .  A
N1518      O1522   1.262       .  A
N1518      O1521   1.262       .  A
C1523      C1528   1.401       .  A
C1523      H1530   1.084       .  S
C1524      C1525   1.419       .  A
C1525      N2044   1.428       .  S
C1526      C2039   1.393   1_566  A
C1526      H1531   1.084       .  S
C1527      C1649   1.481       .  S
C1527      C2038   1.394   1_545  A
C1527      C1528   1.421   1_655  A
C1528      N1529   1.428       .  S
N1529      O1533   1.261       .  A
N1529      O1534   1.262       .  A
N1532      C2037   1.428       .  S
N1532      O1536   1.261       .  A
N1532      O1535   1.262       .  A
O1537     Cr1555   1.966       .  S
O1537      C1545   1.260       .  A
O1538     Cr1555   2.027       .  S
O1538      C1539   1.266       .  A
C1539      O1540   1.257       .  A
C1539      C2008   1.482   1_565  S
O1540     Cr1556   1.981       .  S
O1541     Cr1556   2.058       .  S
O1541      C1542   1.279       .  A
C1542      O1543   1.247       .  A
C1542      C2036   1.482       .  S
O1543     Cr1557   1.925       .  S
O1544     Cr1557   2.026       .  S
O1544      C1545   1.275       .  A
O1546     Cr1555   2.027       .  S
O1546      C1554   1.272       .  A
O1547     Cr1555   1.940       .  S
O1547      C1548   1.258       .  A
C1548      O1549   1.278       .  A
C1548      C1969   1.482       .  S
O1549     Cr1556   2.039       .  S
O1550     Cr1556   1.955       .  S
O1550      C1551   1.248       .  A
C1551      O1552   1.272       .  A
O1552     Cr1557   2.053       .  S
O1553     Cr1557   1.981       .  S
O1553      C1554   1.263       .  A
C1554      C1994   1.496       .  S
Cr1555     O1558   1.758       .  S
Cr1556     O1558   1.760       .  S
Cr1557     O1558   1.764       .  S
O1559     Cr1577   2.012       .  S
O1559      C1567   1.269       .  A
O1560     Cr1577   1.934       .  S
O1560      C1561   1.252       .  A
C1561      O1562   1.279       .  A
C1561      C1896   1.483       .  S
O1562     Cr1578   2.053       .  S
O1563     Cr1578   1.991       .  S
O1563      C1564   1.258       .  A
C1564      O1565   1.264       .  A
C1564      C1955   1.485       .  S
O1565     Cr1579   2.022       .  S
O1566     Cr1579   1.966       .  S
O1566      C1567   1.262       .  A
O1568     Cr1577   1.985       .  S
O1568      C1576   1.264       .  A
O1569     Cr1577   2.028       .  S
O1569      C1570   1.268       .  A
C1570      O1571   1.253       .  A
O1571     Cr1578   1.970       .  S
O1572     Cr1578   2.041       .  S
O1572      C1573   1.279       .  A
C1573      O1574   1.256       .  A
C1573      C1924   1.483       .  S
O1574     Cr1579   1.937       .  S
O1575     Cr1579   2.021       .  S
O1575      C1576   1.268       .  A
C1576      C1997   1.497       .  S
Cr1577     O1580   1.765       .  S
Cr1578     O1580   1.767       .  S
Cr1579     O1580   1.761       .  S
O1581     Cr1599   2.018       .  S
O1581      C1589   1.272       .  A
O1582     Cr1599   1.940       .  S
O1582      C1583   1.252       .  A
C1583      O1584   1.280       .  A
C1583      C1840   1.482       .  S
O1584     Cr1600   2.061       .  S
O1585     Cr1600   1.983       .  S
O1585      C1586   1.258       .  A
C1586      O1587   1.266       .  A
C1586      C1882   1.481   1_565  S
O1587     Cr1601   2.023       .  S
O1588     Cr1601   1.943       .  S
O1588      C1589   1.258       .  A
C1589      C1966   1.464       .  S
O1590     Cr1599   1.985       .  S
O1590      C1598   1.261       .  A
O1591     Cr1599   2.035       .  S
O1591      C1592   1.268       .  A
C1592      O1593   1.252       .  A
C1592      C1868   1.493       .  S
O1593     Cr1600   1.956       .  S
O1594     Cr1600   2.050       .  S
O1594      C1595   1.278       .  A
C1595      O1596   1.255       .  A
C1595      C1983   1.477       .  S
O1596     Cr1601   1.938       .  S
O1597     Cr1601   2.007       .  S
O1597      C1598   1.267       .  A
C1598      C1854   1.491       .  S
Cr1599     O1602   1.772       .  S
Cr1600     O1602   1.761       .  S
Cr1601     O1602   1.758       .  S
O1603     Cr1621   1.970       .  S
O1603      C1611   1.259       .  A
O1604     Cr1621   2.014       .  S
O1604      C1605   1.264       .  A
C1605      O1606   1.259       .  A
C1605      C1798   1.482       .  S
O1606     Cr1622   1.993       .  S
O1607     Cr1622   2.056       .  S
O1607      C1608   1.279       .  A
C1608      O1609   1.253       .  A
C1608      C1826   1.490       .  S
O1609     Cr1623   1.939       .  S
O1610     Cr1623   2.012       .  S
O1610      C1611   1.271       .  A
C1611      C1927   1.479       .  S
O1612     Cr1621   2.014       .  S
O1612      C1620   1.268       .  A
O1613     Cr1621   1.936       .  S
O1613      C1614   1.256       .  A
C1614      O1615   1.279       .  A
C1614      C1913   1.483       .  S
O1615     Cr1622   2.049       .  S
O1616     Cr1622   1.973       .  S
O1616      C1617   1.255       .  A
C1617      O1618   1.267       .  A
C1617      C1815   1.487       .  S
O1618     Cr1623   2.026       .  S
O1619     Cr1623   1.983       .  S
O1619      C1620   1.263       .  A
C1620      C1857   1.492       .  S
Cr1621     O1624   1.757       .  S
Cr1622     O1624   1.764       .  S
Cr1623     O1624   1.761       .  S
O1625     Cr1643   1.980       .  S
O1625      C1633   1.262       .  A
O1626     Cr1643   2.019       .  S
O1626      C1627   1.265       .  A
C1627      O1628   1.256       .  A
C1627      C1812   1.476       .  S
O1628     Cr1644   1.980       .  S
O1629     Cr1644   2.045       .  S
O1629      C1630   1.277       .  A
C1630      O1631   1.252       .  A
O1631     Cr1645   1.935       .  S
O1632     Cr1645   2.021       .  S
O1632      C1633   1.271       .  A
C1633      C1773   1.479       .  S
O1634     Cr1643   2.025       .  S
O1634      C1642   1.271       .  A
O1635     Cr1643   1.953       .  S
O1635      C1636   1.259       .  A
C1636      O1637   1.276       .  A
C1636      C1759   1.484       .  S
O1637     Cr1644   2.030       .  S
O1638      C1639   1.252       .  A
C1639      O1640   1.268       .  A
C1639      C1801   1.487       .  S
O1641     Cr1645   1.975       .  S
O1641      C1642   1.262       .  A
C1642      C1784   1.494       .  S
Cr1643     O1646   1.758       .  S
Cr1644     O1646   1.760       .  S
Cr1645     O1646   1.765       .  S
O1647     Cr1665   2.026       .  S
O1647      C1655   1.274       .  A
O1648     Cr1665   1.939       .  S
O1648      C1649   1.250       .  A
C1649      O1650   1.278       .  A
O1650     Cr1666   2.045       .  S
O1651     Cr1666   1.974       .  S
O1651      C1652   1.255       .  A
C1652      O1653   1.266       .  A
C1652      C1871   1.473   1_545  S
O1653     Cr1667   2.021       .  S
O1654     Cr1667   1.955       .  S
O1654      C1655   1.260       .  A
C1655      C1728   1.480       .  S
O1656     Cr1665   1.986       .  S
O1656      C1664   1.264       .  A
O1657      C1658   1.272       .  A
C1658      O1659   1.251   1_556  A
C1658      C1885   1.500       .  S
O1660     Cr1666   2.033       .  S
O1660      C1661   1.275       .  A
C1661      O1662   1.258       .  A
C1661      C1745   1.483       .  S
O1662     Cr1667   1.943       .  S
O1663     Cr1667   2.012       .  S
O1663      C1664   1.269       .  A
C1664      C1787   1.492       .  S
Cr1665     O1668   1.768       .  S
Cr1666     O1668   1.756       .  S
Cr1667     O1668   1.758       .  S
O1669     Cr1687   2.017       .  S
O1669      C1677   1.270       .  A
O1670     Cr1687   1.937       .  S
O1670      C1671   1.250       .  A
C1671      O1672   1.278       .  A
C1671      C1829   1.490       .  S
O1672     Cr1688   2.058       .  S
O1673     Cr1688   1.990       .  S
O1673      C1674   1.258       .  A
C1674      O1675   1.264       .  A
C1674      C1938   1.482       .  S
O1675     Cr1689   2.018       .  S
O1676     Cr1689   1.971       .  S
O1676      C1677   1.260       .  A
C1677      C1756   1.471       .  S
O1678     Cr1687   1.986       .  S
O1678      C1686   1.264       .  A
O1679     Cr1687   2.048       .  S
O1679      C1680   1.271       .  A
C1680      O1681   1.254       .  A
C1680      C1952   1.500       .  S
O1681     Cr1688   1.964       .  S
O1682     Cr1688   2.048       .  S
O1682      C1683   1.281       .  A
C1683      O1684   1.259       .  A
C1683      C1770   1.494       .  S
O1684     Cr1689   1.949       .  S
O1685     Cr1689   2.023       .  S
O1685      C1686   1.271       .  A
C1686      C1714   1.499       .  S
Cr1687     O1690   1.765       .  S
Cr1688     O1690   1.761       .  S
Cr1689     O1690   1.760       .  S
O1691     Cr1709   1.959       .  S
O1691      C1699   1.257       .  A
O1692     Cr1709   2.023       .  S
O1692      C1693   1.267       .  A
C1693      O1694   1.258       .  A
C1693      C2022   1.484   1_545  S
O1694     Cr1710   1.985       .  S
O1695     Cr1710   2.059       .  S
O1695      C1696   1.281       .  A
C1696      O1697   1.254       .  A
C1696      C1843   1.479       .  S
O1697     Cr1711   1.941       .  S
O1698     Cr1711   2.022       .  S
O1698      C1699   1.272       .  A
C1699      C1742   1.469       .  S
O1700     Cr1709   2.031       .  S
O1700      C1708   1.271       .  A
O1701     Cr1709   1.938       .  S
O1701      C1702   1.256       .  A
C1702      O1703   1.277       .  A
C1702      C1731   1.485       .  S
O1703     Cr1710   2.043       .  S
O1704     Cr1710   1.965       .  S
O1704      C1705   1.251       .  A
C1705      O1706   1.267       .  A
C1705      C2011   1.488       .  S
O1706     Cr1711   2.028       .  S
O1707     Cr1711   1.980       .  S
O1707      C1708   1.262       .  A
C1708      C1717   1.499       .  S
Cr1709     O1712   1.761       .  S
Cr1710     O1712   1.766       .  S
Cr1711     O1712   1.770       .  S
C1713      C1714   1.408       .  A
C1713      C1718   1.403       .  A
C1713      H1720   1.083       .  S
C1714      C1715   1.415       .  A
C1715      C1716   1.407       .  A
C1715      N1722   1.429       .  S
C1716      C1717   1.409       .  A
C1716      H1721   1.083       .  S
C1717      C1718   1.415       .  A
C1718      N1719   1.429       .  S
N1719      O1723   1.262       .  A
N1719      O1724   1.262       .  A
N1722      O1726   1.262       .  A
N1722      O1725   1.262       .  A
C1727      C1732   1.400       .  A
C1727      H1734   1.080       .  S
C1729      C1730   1.396       .  A
C1730      C1731   1.413       .  A
C1730      H1735   1.084       .  S
C1731      C1732   1.411       .  A
C1732      N1733   1.431       .  S
N1733      O1737   1.262       .  A
N1733      O1738   1.261       .  A
N1736      O1740   1.262       .  A
N1736      O1739   1.262       .  A
C1741      C1742   1.405       .  A
C1741      C1746   1.401       .  A
C1741      H1748   1.084       .  S
C1742      C1743   1.403       .  A
C1743      C1744   1.393       .  A
C1743      N1750   1.429       .  S
C1744      C1745   1.410       .  A
C1744      H1749   1.084       .  S
C1745      C1746   1.412       .  A
C1746      N1747   1.429       .  S
N1747      O1751   1.262       .  A
N1747      O1752   1.262       .  A
N1750      O1754   1.261       .  A
N1750      O1753   1.262       .  A
C1755      C1756   1.397       .  A
C1755      C1760   1.397       .  A
C1755      H1762   1.084       .  S
C1756      C1757   1.412       .  A
C1757      C1758   1.400       .  A
C1757      N1764   1.428       .  S
C1758      C1759   1.403       .  A
C1758      H1763   1.083       .  S
C1759      C1760   1.418       .  A
C1760      N1761   1.431       .  S
N1761      O1765   1.262       .  A
N1761      O1766   1.262       .  A
N1764      O1768   1.261       .  A
N1764      O1767   1.262       .  A
C1769      C1770   1.402       .  A
C1769      H1776   1.083       .  S
C1770      C1771   1.423       .  A
C1771      C1772   1.404       .  A
C1771      N1778   1.434       .  S
C1772      H1777   1.084       .  S
C1773      C1774   1.413       .  A
C1774      N1775   1.428       .  S
N1775      O1779   1.261       .  A
N1775      O1780   1.262       .  A
N1778      O1782   1.262       .  A
N1778      O1781   1.263       .  A
C1783      C1784   1.409       .  A
C1783      C1788   1.404       .  A
C1784      C1785   1.416       .  A
C1785      C1786   1.401       .  A
C1785      N1792   1.431       .  S
C1786      C1787   1.407       .  A
C1786      H1791   1.084       .  S
C1787      C1788   1.413       .  A
N1789      O1793   1.262       .  A
N1789      O1794   1.262       .  A
N1792      O1796   1.262       .  A
N1792      O1795   1.262       .  A
C1797      C1798   1.402       .  A
C1797      C1802   1.408       .  A
C1797      H1804   1.081       .  S
C1798      C1799   1.410       .  A
C1799      C1800   1.401       .  A
C1799      N1806   1.428       .  S
C1800      C1801   1.404       .  A
C1800      H1805   1.084       .  S
C1801      C1802   1.415       .  A
C1802      N1803   1.429       .  S
N1803      O1807   1.262       .  A
N1803      O1808   1.262       .  A
N1806      O1810   1.261       .  A
N1806      O1809   1.262       .  A
C1811      C1812   1.398       .  A
C1811      C1816   1.404       .  A
C1811      H1818   1.081       .  S
C1812      C1813   1.408       .  A
C1813      C1814   1.403       .  A
C1813      N1820   1.429       .  S
C1814      C1815   1.407       .  A
C1814      H1819   1.084       .  S
C1815      C1816   1.415       .  A
C1816      N1817   1.428       .  S
N1817      O1821   1.261       .  A
N1817      O1822   1.262       .  A
N1820      O1824   1.262       .  A
N1820      O1823   1.262       .  A
C1825      C1826   1.416       .  A
C1825      C1830   1.401       .  A
C1825      H1832   1.083       .  S
C1826      C1827   1.404       .  A
C1827      C1828   1.400       .  A
C1827      N1834   1.429       .  S
C1828      C1829   1.417       .  A
C1828      H1833   1.083       .  S
C1829      C1830   1.404       .  A
C1830      N1831   1.428       .  S
N1831      O1835   1.262       .  A
N1831      O1836   1.262       .  A
N1834      O1838   1.262       .  A
N1834      O1837   1.262       .  A
C1839      C1840   1.411       .  A
C1839      C1844   1.403       .  A
C1839      H1846   1.084       .  S
C1840      C1841   1.404   1_565  A
C1841      C1842   1.406       .  A
C1841      N1848   1.429       .  S
C1842      C1843   1.412       .  A
C1842      H1847   1.084       .  S
C1843      C1844   1.402   1_545  A
C1844      N1845   1.429       .  S
N1845      O1849   1.262       .  A
N1845      O1850   1.261       .  A
N1848      O1852   1.262       .  A
N1848      O1851   1.261       .  A
C1853      C1854   1.405       .  A
C1853      C1858   1.395       .  A
C1853      H1860   1.084       .  S
C1854      C1855   1.415       .  A
C1855      C1856   1.407       .  A
C1855      N1862   1.429       .  S
C1856      C1857   1.409       .  A
C1856      H1861   1.083       .  S
C1857      C1858   1.415       .  A
C1858      N1859   1.429       .  S
N1859      O1863   1.262       .  A
N1859      O1864   1.262       .  A
N1862      O1866   1.262       .  A
N1862      O1865   1.262       .  A
C1867      C1868   1.411       .  A
C1867      C1872   1.399       .  A
C1867      H1874   1.084       .  S
C1868      C1869   1.418       .  A
C1869      C1870   1.407       .  A
C1869      N1876   1.433       .  S
C1870      C1871   1.402       .  A
C1870      H1875   1.083       .  S
C1871      C1872   1.401       .  A
C1872      N1873   1.426   1_565  S
N1873      O1877   1.262       .  A
N1873      O1878   1.262   1_545  A
N1876      O1880   1.262       .  A
N1876      O1879   1.262       .  A
C1881      C1882   1.405       .  A
C1881      C1886   1.410       .  A
C1881      H1888   1.084       .  S
C1882      C1883   1.403       .  A
C1883      C1884   1.401       .  A
C1883      N1890   1.428   1_545  S
C1884      C1885   1.413       .  A
C1884      H1889   1.084       .  S
C1885      C1886   1.415       .  A
C1886      N1887   1.428       .  S
N1887      O1891   1.262       .  A
N1887      O1892   1.262       .  A
N1890      O1894   1.262   1_565  A
N1890      O1893   1.262       .  A
C1895      C1896   1.415       .  A
C1897      C1898   1.401   1_455  A
C1897      N1904   1.430       .  S
C1898      C1899   1.415   1_556  A
C1898      H1903   1.084   1_556  S
N1901      O1905   1.262       .  A
N1904      O1908   1.262       .  A
C1909      C1910   1.407       .  A
C1909      C1914   1.402   1_455  A
C1910      C1911   1.407   1_455  A
C1911      C1912   1.392       .  A
C1911      N1918   1.430       .  S
C1912      C1913   1.411       .  A
C1912      H1917   1.084       .  S
C1913      C1914   1.410       .  A
C1914      N1915   1.429       .  S
N1915      O1919   1.261       .  A
N1915      O1920   1.261       .  A
N1918      O1922   1.262       .  A
N1918      O1921   1.262       .  A
C1923      C1924   1.403       .  A
C1923      C1928   1.403       .  A
C1923      H1930   1.084       .  S
C1924      C1925   1.420       .  A
C1925      C1926   1.391       .  A
C1925      N1932   1.431       .  S
C1926      C1927   1.398       .  A
C1926      H1931   1.084       .  S
C1927      C1928   1.415       .  A
C1928      N1929   1.429       .  S
N1929      O1933   1.262       .  A
N1929      O1934   1.261       .  A
N1932      O1936   1.262       .  A
N1932      O1935   1.262       .  A
C1937      C1938   1.403       .  A
C1937      C1942   1.408       .  A
C1937      H1944   1.081       .  S
C1938      C1939   1.409       .  A
C1939      C1940   1.402       .  A
C1939      N1946   1.429       .  S
C1940      C1941   1.405       .  A
C1940      H1945   1.084       .  S
C1941      C1942   1.415       .  A
C1942      N1943   1.429       .  S
N1943      O1947   1.262       .  A
N1946      O1950   1.262       .  A
N1946      O1949   1.261       .  A
C1951      C1952   1.412       .  A
C1951      C1956   1.406       .  A
C1951      H1958   1.084       .  S
C1952      C1953   1.419       .  A
C1953      C1954   1.411       .  A
C1953      N1960   1.433       .  S
C1954      C1955   1.404       .  A
C1954      H1959   1.084       .  S
C1955      C1956   1.405       .  A
C1956      N1957   1.428       .  S
N1957      O1961   1.261       .  A
N1957      O1962   1.262       .  A
N1960      O1964   1.262       .  A
N1960      O1963   1.262       .  A
C1965      C1966   1.399       .  A
C1965      C1970   1.391       .  A
C1965      H1972   1.080       .  S
C1966      C1967   1.404       .  A
C1967      C1968   1.398       .  A
C1967      N1974   1.435       .  S
C1968      C1969   1.415       .  A
C1968      H1973   1.083       .  S
C1969      C1970   1.409       .  A
C1970      N1971   1.425       .  S
N1971      O1975   1.260       .  A
N1971      O1976   1.259       .  A
N1974      O1978   1.262       .  A
N1974      O1977   1.263       .  A
C1979      C1980   1.401   1_655  A
C1979      C1984   1.396       .  A
C1979      H1986   1.084       .  S
C1980      C1981   1.420       .  A
C1981      C1982   1.405   1_455  A
C1982      C1983   1.399       .  A
C1982      H1987   1.084       .  S
C1983      C1984   1.416       .  A
C1984      N1985   1.435       .  S
N1985      O1989   1.262       .  A
N1985      O1990   1.263       .  A
N1988      O1992   1.261       .  A
N1988      O1991   1.262       .  A
C1993      C1994   1.406       .  A
C1993      C1998   1.404       .  A
C1993      H2000   1.084       .  S
C1994      C1995   1.415       .  A
C1995      C1996   1.405       .  A
C1995      N2002   1.429       .  S
C1996      C1997   1.408       .  A
C1996      H2001   1.084       .  S
C1997      C1998   1.419       .  A
C1998      N1999   1.432       .  S
N1999      O2003   1.262       .  A
N1999      O2004   1.262       .  A
N2002      O2006   1.262       .  A
N2002      O2005   1.262       .  A
C2007      C2008   1.397       .  A
C2007      C2012   1.404       .  A
C2007      H2014   1.076       .  S
C2008      C2009   1.410       .  A
C2009      C2010   1.403       .  A
C2009      N2016   1.426       .  S
C2010      C2011   1.404       .  A
C2010      H2015   1.084       .  S
C2011      C2012   1.415       .  A
C2012      N2013   1.429       .  S
N2013      O2017   1.261       .  A
N2013      O2018   1.262       .  A
N2016      O2020   1.262       .  A
N2016      O2019   1.262   1_545  A
C2021      C2022   1.394       .  A
C2021      C2026   1.402       .  A
C2021      H2028   1.085   1_565  S
C2022      C2023   1.413       .  A
C2023      C2024   1.412       .  A
C2023      N2030   1.430       .  S
C2024      C2025   1.408       .  A
C2024      H2029   1.083       .  S
C2025      C2026   1.423       .  A
N2027      O2031   1.262   1_554  A
N2027      O2032   1.262       .  A
N2030      O2034   1.262       .  A
N2030      O2033   1.262       .  A
C2035      C2040   1.404   1_556  A
C2035      H2042   1.084       .  S
C2036      C2037   1.422       .  A
C2038      H2043   1.084       .  S
C2039      C2040   1.422   1_655  A
C2040      N2041   1.429       .  S
N2041      O2045   1.261       .  A
N2041      O2046   1.262       .  A
N2044      O2048   1.261       .  A
N2044      O2047   1.262       .  A
