geometry optimzed in LAMMPS
_audit_creation_date              2020-11-30 
_audit_creation_method            'lammps2cif' 
_symmetry_space_group_name_H-M    'P1' 
_symmetry_Int_Tables_number       1 
_symmetry_cell_setting            triclinic 
loop_ 
_symmetry_equiv_pos_as_xyz 
  x,y,z 
_cell_length_a                    29.58474017 
_cell_length_b                    48.84526648009913 
_cell_length_c                    26.859658152028533 
_cell_angle_alpha                 89.9639997864126 
_cell_angle_beta                  90.0527465846345 
_cell_angle_gamma                 89.96976680707034 
loop_ 
_atom_site_label 
_atom_site_type_symbol 
_atom_site_fract_x 
_atom_site_fract_y 
_atom_site_fract_z 
_atom_site_charge 
O1          O  0.13786069  0.90627239  0.73957814    -0.85700
O2          O  0.21330464  0.93823866  0.72496520    -0.82800
C3          C  0.19848729  0.96218647  0.73220309     0.97700
O4          O  0.18417722  0.96850919  0.77482532    -0.82800
O5          O  0.15350194  0.96321620  0.87307716    -0.85400
C6          C  0.11378902  0.95319520  0.87460512     1.02300
O7          O  0.10625360  0.92987412  0.85697946    -0.78200
O8          O  0.11367545  0.88325663  0.80422562    -0.78400
C9          C  0.10654588  0.89369584  0.76161502     1.02200
O10         O  0.19302915  0.86414508  0.78310773    -0.85700
O11         O  0.26468230  0.89996321  0.78100384    -0.82800
C12         C  0.28856457  0.92091642  0.78894554     0.97800
O13         O  0.26990239  0.94334049  0.80168467    -0.82800
O14         O  0.23773849  0.93613796  0.89611550    -0.85400
C15         C  0.21445285  0.92726130  0.93170189     1.02200
O16         O  0.17757243  0.91489026  0.92319511    -0.78200
O17         O  0.19187734  0.86814165  0.86405148    -0.78400
C18         C  0.19777172  0.85356001  0.82582695     1.02200
Cr19       Cr  0.20110675  0.90316355  0.76132176     1.93700
Cr20       Cr  0.20949151  0.95043654  0.83508683     1.93200
Cr21       Cr  0.15053797  0.90018728  0.85939717     1.39100
O22         O  0.18728092  0.91801872  0.81903603    -1.23500
O23         O  0.10954283  0.59214832  0.83619532    -0.85700
O24         O  0.14778862  0.56145601  0.90992916    -0.82800
C25         C  0.14029269  0.53910481  0.88832729     0.97700
O26         O  0.16522251  0.53175037  0.85253712    -0.82800
O27         O  0.22379155  0.53599856  0.77188472    -0.85400
C28         C  0.20128686  0.54295471  0.73415001     1.02300
O29         O  0.18333366  0.56636342  0.73193820    -0.78200
O30         O  0.13843510  0.61105496  0.76913322    -0.78400
C31         C  0.10466610  0.60188013  0.79304753     1.02200
O32         O  0.17061865  0.63551405  0.85683067    -0.85700
O33         O  0.21662605  0.60055897  0.92344078    -0.82800
C34         C  0.23614945  0.57903427  0.93870705     0.97800
O35         O  0.23453245  0.55712680  0.91361614    -0.82800
O36         O  0.28605940  0.56603150  0.83060586    -0.85400
C37         C  0.29769277  0.57972062  0.79276444     1.02200
O38         O  0.26854856  0.58936897  0.76293459    -0.78200
O39         O  0.22494561  0.63347467  0.80275794    -0.78400
C40         C  0.20179258  0.64720617  0.83320003     1.02200
Cr41       Cr  0.16410690  0.59650549  0.87754474     1.93700
Cr42       Cr  0.22509159  0.55014339  0.84127617     1.93200
Cr43       Cr  0.20334633  0.59876850  0.77149771     1.39100
O44         O  0.19809480  0.58194909  0.82982086    -1.23500
O45         O  0.61095287  0.89508371  0.61283768    -0.85700
O46         O  0.61402865  0.94166336  0.55813155    -0.82800
C47         C  0.62736494  0.96410585  0.54072005     0.97700
O48         O  0.66875023  0.97078946  0.54276020    -0.82800
O49         O  0.69240735  0.97625054  0.64276878    -0.85400
C50         C  0.70059935  0.96960679  0.68726011     1.02300
O51         O  0.71332156  0.94545304  0.69720151    -0.78200
O52         O  0.63641498  0.91553696  0.67994916    -0.78400
C53         C  0.60452401  0.90460134  0.65617052     1.02200
O54         O  0.68887439  0.87490593  0.55870892    -0.85700
O55         O  0.68638756  0.92101452  0.49815975    -0.82800
C56         C  0.72589287  0.93040012  0.49140859     0.97800
O57         O  0.74861495  0.93863596  0.52808742    -0.82800
O58         O  0.77604801  0.94680837  0.62483045    -0.85400
C59         C  0.79085331  0.92350418  0.63820894     1.02200
O60         O  0.76404988  0.90396513  0.64604624    -0.78200
O61         O  0.68873317  0.87136403  0.63973902    -0.78400
C62         C  0.69269496  0.86038100  0.59724251     1.02200
Cr63       Cr  0.65322978  0.90922438  0.56009997     1.93700
Cr64       Cr  0.71921332  0.95582229  0.58606486     1.93200
Cr65       Cr  0.70000828  0.91017808  0.66134173     1.39100
O66         O  0.69086282  0.92512724  0.60229485    -1.23500
O67         O  0.64447151  0.60112937  0.68747406    -0.85700
O68         O  0.72031464  0.56985879  0.70228532    -0.82800
C69         C  0.70524465  0.54597520  0.69539281     0.97700
O70         O  0.69081556  0.53920067  0.65295007    -0.82800
O71         O  0.66202904  0.54338071  0.55351461    -0.85400
C72         C  0.62229782  0.55312722  0.55018371     1.02300
O73         O  0.61349240  0.57634380  0.56751301    -0.78200
O74         O  0.61893747  0.62263103  0.62183220    -0.78400
C75         C  0.61199401  0.61196580  0.66426841     1.02200
O76         O  0.69869114  0.64358076  0.64307306    -0.85700
O77         O  0.77171191  0.60780112  0.64617931    -0.82800
C78         C  0.79505009  0.58639739  0.64022763     0.97800
O79         O  0.77657072  0.56397617  0.62713462    -0.82800
O80         O  0.74548818  0.57045151  0.53099304    -0.85400
C81         C  0.72276724  0.58001186  0.49530563     1.02200
O82         O  0.68590113  0.59243540  0.50365377    -0.78200
O83         O  0.69696991  0.63883656  0.56239023    -0.78400
C84         C  0.70251149  0.65382465  0.60002028     1.02200
Cr85       Cr  0.70769969  0.60461305  0.66537715     1.93700
Cr86       Cr  0.71684655  0.55669281  0.59249293     1.93200
Cr87       Cr  0.65700687  0.60644688  0.56680619     1.39100
O88         O  0.69412856  0.58919044  0.60771558    -1.23500
O89         O  0.84346262  0.40946951  0.18740651    -0.85700
O90         O  0.76880157  0.44185580  0.20208938    -0.82800
C91         C  0.78419522  0.46575076  0.19551160     0.97700
O92         O  0.79859679  0.47254399  0.15296944    -0.82800
O93         O  0.82670171  0.46758477  0.05257168    -0.85400
C94         C  0.86631821  0.45754761  0.05033705     1.02300
O95         O  0.87465317  0.43501325  0.07048382    -0.78200
O96         O  0.86850257  0.38804100  0.12159767    -0.78400
C97         C  0.87551905  0.39807826  0.16446976     1.02200
O98         O  0.78864523  0.36790210  0.14193806    -0.85700
O99         O  0.71686892  0.40403139  0.14505940    -0.82800
C100        C  0.69399828  0.42557253  0.13954365     0.97800
O101        O  0.71269618  0.44813336  0.12812646    -0.82800
O102        O  0.74247047  0.44010202  0.03325767    -0.85400
C103        C  0.76488886  0.43177769  0.99651704     1.02200
O104        O  0.80277222  0.42022679  0.00375883    -0.78200
O105        O  0.79077444  0.37301343  0.06122971    -0.78400
C106        C  0.78486929  0.35787384  0.09867185     1.02200
Cr107      Cr  0.78045970  0.40678269  0.16512786     1.93700
Cr108      Cr  0.77205476  0.45483101  0.09295022     1.93200
Cr109      Cr  0.83116647  0.40515937  0.06699576     1.39100
O110        O  0.79442958  0.42231635  0.10808957    -1.23500
O111        O  0.86627569  0.11753962  0.11943640    -0.85700
O112        O  0.86730866  0.07120715  0.06522670    -0.82800
C113        C  0.85620983  0.04798020  0.04947422     0.97700
O114        O  0.81500305  0.04063377  0.04931722    -0.82800
O115        O  0.78521389  0.03683328  0.14710343    -0.85400
C116        C  0.77346255  0.04377521  0.19035093     1.02300
O117        O  0.75935007  0.06784727  0.19797436    -0.78200
O118        O  0.83779226  0.09653423  0.18421501    -0.78400
C119        C  0.87122302  0.10699663  0.16232784     1.02200
O120        O  0.79047395  0.13689862  0.05929135    -0.85700
O121        O  0.79809139  0.09009010  0.00007586    -0.82800
C122        C  0.76005313  0.07941346  0.99054849     0.97800
O123        O  0.73508430  0.07155017  0.02576154    -0.82800
O124        O  0.70203544  0.06555975  0.12124222    -0.85400
C125        C  0.68613937  0.08862303  0.13475815     1.02200
O126        O  0.71221177  0.10862385  0.14238669    -0.78200
O127        O  0.78879321  0.14107779  0.14023964    -0.78400
C128        C  0.78648968  0.15174876  0.09735643     1.02200
Cr129      Cr  0.82711883  0.10297942  0.06384402     1.93700
Cr130      Cr  0.76127199  0.05595611  0.08730009     1.93200
Cr131      Cr  0.77542776  0.10250038  0.16184291     1.39100
O132        O  0.78767492  0.08711262  0.10387086    -1.23500
O133        O  0.36993576  0.38933885  0.30735480    -0.85700
O134        O  0.37344524  0.43541848  0.36221876    -0.82800
C135        C  0.36393826  0.45926764  0.37620798     0.97700
O136        O  0.32338830  0.46791098  0.37502187    -0.82800
O137        O  0.29665478  0.47297448  0.27690943    -0.85400
C138        C  0.28600059  0.46660037  0.23308442     1.02300
O139        O  0.27115831  0.44280219  0.22430366    -0.78200
O140        O  0.34654708  0.41197727  0.24212499    -0.78400
C141        C  0.37817714  0.40063229  0.26574612     1.02200
O142        O  0.28967254  0.37265171  0.36348258    -0.85700
O143        O  0.30055846  0.41917658  0.42410587    -0.82800
C144        C  0.26289812  0.43093226  0.43127296     0.97800
O145        O  0.23999293  0.43925246  0.39485618    -0.82800
O146        O  0.21076316  0.44633802  0.29894361    -0.85400
C147        C  0.19418405  0.42362886  0.28447827     1.02200
O148        O  0.21932962  0.40320791  0.27712137    -0.78200
O149        O  0.29238002  0.36858645  0.28287494    -0.78400
C150        C  0.28478832  0.35803733  0.32507554     1.02200
Cr151      Cr  0.33027339  0.40512224  0.36139140     1.93700
Cr152      Cr  0.26952903  0.45428165  0.33515734     1.93200
Cr153      Cr  0.28320954  0.40762120  0.26088637     1.39100
O154        O  0.29414767  0.42247893  0.31954412    -1.23500
O155        O  0.33499570  0.10321990  0.23449274    -0.85700
O156        O  0.25931960  0.07098318  0.22060694    -0.82800
C157        C  0.27564233  0.04714890  0.22438991     0.97700
O158        O  0.29272428  0.03988340  0.26522600    -0.82800
O159        O  0.32680406  0.04090398  0.36091487    -0.85400
C160        C  0.36663845  0.05064224  0.36060488     1.02300
O161        O  0.37311323  0.07535336  0.35006763    -0.78200
O162        O  0.36299770  0.12298329  0.30085637    -0.78400
C163        C  0.36796244  0.11416756  0.25667629     1.02200
O164        O  0.28148886  0.14349018  0.28605204    -0.85700
O165        O  0.21034574  0.10703453  0.28406531    -0.82800
C166        C  0.18769818  0.08549081  0.29075554     0.97800
O167        O  0.20727666  0.06273979  0.29941606    -0.82800
O168        O  0.24361606  0.06612307  0.39283435    -0.85400
C169        C  0.26761632  0.07432709  0.42849613     1.02200
O170        O  0.30333709  0.08790325  0.41985741    -0.78200
O171        O  0.28734586  0.13625198  0.36607649    -0.78400
C172        C  0.28010475  0.15235622  0.33030081     1.02200
Cr173      Cr  0.27293816  0.10502454  0.26042071     1.93700
Cr174      Cr  0.26923781  0.05493493  0.32853115     1.93200
Cr175      Cr  0.32830422  0.10456141  0.35636448     1.39100
O176        O  0.28999727  0.08811094  0.31562621    -1.23500
C177        C  0.30301652  0.22677866  0.36222579    -0.11800
C178        C  0.26434914  0.23986913  0.34332550     0.14800
C179        C  0.22917843  0.22352140  0.32331992     0.01700
C180        C  0.23459006  0.19497408  0.32033171    -0.16100
C181        C  0.27339972  0.18203510  0.33918766    -0.10900
C182        C  0.30738101  0.19823302  0.36145244     0.08400
C183        C  0.26426591  0.27044022  0.34029469     0.09400
S184        S  0.17667813  0.23776667  0.30098062    -0.25200
H185        H  0.20830113  0.18274562  0.30321758     0.19700
S186        S  0.35902996  0.18381040  0.38526836    -0.30900
H187        H  0.33065206  0.23896880  0.37669071     0.10000
C188        C  0.27067010  0.28716465  0.38260564     0.03200
C189        C  0.27573130  0.31565358  0.37678024    -0.13200
C190        C  0.27381373  0.32816813  0.32952684    -0.08900
C191        C  0.26418481  0.31134687  0.28766580     0.06700
C192        C  0.26084966  0.28290927  0.29340552    -0.14000
S193        S  0.27171773  0.27236746  0.44427572    -0.30900
H194        H  0.28198403  0.32815058  0.40928431     0.10900
S195        S  0.25491097  0.32447709  0.22576921    -0.28000
H196        H  0.25567320  0.27029654  0.26073251     0.08100
H197        H  0.33689916  0.16593764  0.41824523     0.26600
H198        H  0.28282278  0.29648737  0.47010726     0.21400
H199        H  0.22565652  0.34543197  0.24181682     0.26700
H200        H  0.17686861  0.26068361  0.33265125     0.15500
C201        C  0.06782807  0.11195046  0.27901790    -0.11800
C202        C  0.04907965  0.09215184  0.24738756     0.14800
C203        C  0.07505978  0.06901777  0.23408250     0.01700
C204        C  0.11891954  0.06612161  0.25275239    -0.16100
C205        C  0.13844317  0.08652899  0.28255302    -0.10900
C206        C  0.11210332  0.10939959  0.29676259     0.08400
C207        C  0.00286477  0.09663052  0.22787379     0.09400
S208        S  0.05551993  0.04362021  0.19047516    -0.25200
H209        H  0.13909035  0.04882782  0.24079142     0.19700
S210        S  0.13297913  0.13603631  0.33721063    -0.30900
H211        H  0.04792284  0.12963156  0.28958011     0.10000
C212        C  0.96647301  0.07977930  0.24199379     0.03200
C213        C  0.92378379  0.08433911  0.22108343    -0.13200
C214        C  0.91626390  0.10557572  0.18655526    -0.08900
C215        C  0.95258535  0.12318604  0.17426251     0.06700
C216        C  0.99539527  0.11832164  0.19463946    -0.14000
S217        S  0.97411858  0.05273452  0.28718096    -0.30900
H218        H  0.89620291  0.07078282  0.23103326     0.10900
S219        S  0.94651638  0.15259637  0.13428301    -0.28000
H220        H  0.02331065  0.13162977  0.18452974     0.08100
H221        H  0.16242169  0.11901683  0.36439817     0.26600
H222        H  0.93087261  0.04107361  0.28229218     0.21400
H223        H  0.90442140  0.16039253  0.15407291     0.26700
H224        H  0.03340665  0.06254490  0.15946976     0.15500
C225        C  0.49228727  0.12789918  0.22693401    -0.11800
C226        C  0.49961487  0.10902132  0.18841493     0.14800
C227        C  0.46264463  0.09405205  0.16953429     0.01700
C228        C  0.42007074  0.09707821  0.19130488    -0.16100
C229        C  0.41274881  0.11514433  0.23136366    -0.10900
C230        C  0.44928040  0.13150420  0.24810146     0.08400
C231        C  0.54662237  0.10370798  0.17163590     0.09400
S232        S  0.46772460  0.07030046  0.11840926    -0.25200
H233        H  0.39264195  0.08448064  0.17747607     0.19700
S234        S  0.44215301  0.15705323  0.29606126    -0.30900
H235        H  0.52081585  0.13935015  0.24129488     0.10000
C236        C  0.57320844  0.12421289  0.14917162     0.03200
C237        C  0.61809462  0.11836365  0.13602627    -0.13200
C238        C  0.63711564  0.09234552  0.14444033    -0.08900
C239        C  0.60996073  0.07173960  0.16627539     0.06700
C240        C  0.56540453  0.07771895  0.17995940    -0.14000
S241        S  0.54996678  0.15774390  0.13666021    -0.30900
H242        H  0.63868604  0.13422748  0.11939961     0.10900
S243        S  0.63115881  0.03822630  0.18156427    -0.28000
H244        H  0.54526434  0.06203676  0.19792779     0.08100
H245        H  0.48549896  0.16871333  0.29253244     0.26600
H246        H  0.58927096  0.16924830  0.11595066     0.21400
H247        H  0.63864322  0.03129672  0.13140029     0.26700
H248        H  0.50348507  0.08395536  0.09450839     0.15500
C249        C  0.50579022  0.39383105  0.24714915    -0.11800
C250        C  0.51233222  0.41242966  0.20808507     0.14800
C251        C  0.47488108  0.42561131  0.18650706     0.01700
C252        C  0.43174155  0.42004050  0.20450675    -0.16100
C253        C  0.42465759  0.40208741  0.24489640    -0.10900
C254        C  0.46247078  0.38854582  0.26612919     0.08400
C255        C  0.55850052  0.41712480  0.18953112     0.09400
S256        S  0.47993891  0.45026597  0.13672496    -0.25200
H257        H  0.40356973  0.43090004  0.18777801     0.19700
S258        S  0.45670189  0.36428956  0.31657853    -0.30900
H259        H  0.53497363  0.38347696  0.26275838     0.10000
C260        C  0.58983042  0.43277910  0.21692956     0.03200
C261        C  0.63334184  0.43666091  0.19788263    -0.13200
C262        C  0.64611910  0.42484283  0.15252610    -0.08900
C263        C  0.61459012  0.40951709  0.12479908     0.06700
C264        C  0.57100330  0.40584850  0.14357541    -0.14000
S265        S  0.57460441  0.44758833  0.27619373    -0.30900
H266        H  0.65814598  0.44802896  0.21921820     0.10900
S267        S  0.62824448  0.39395571  0.06583145    -0.28000
H268        H  0.54668246  0.39395479  0.12245108     0.08100
H269        H  0.50305295  0.36126697  0.32694781     0.26600
H270        H  0.61676780  0.45961181  0.28658680     0.21400
H271        H  0.66133882  0.41314070  0.05204440     0.26700
H272        H  0.52217820  0.46073822  0.15126517     0.15500
C273        C  0.07323136  0.43663148  0.24186925    -0.11800
C274        C  0.05468420  0.41034978  0.24713721     0.14800
C275        C  0.08140736  0.38910969  0.26704628     0.01700
C276        C  0.12626142  0.39438861  0.27991523    -0.16100
C277        C  0.14540382  0.42053640  0.27380878    -0.10900
C278        C  0.11824671  0.44194388  0.25459794     0.08400
C279        C  0.00838838  0.40540155  0.22854102     0.09400
S280        S  0.06050088  0.35480105  0.27647784    -0.25200
H281        H  0.14653658  0.37775911  0.29471296     0.19700
S282        S  0.13949855  0.47578639  0.24180077    -0.30900
H283        H  0.05288819  0.45288932  0.22590415     0.10000
C284        C  0.97078021  0.41768860  0.25126260     0.03200
C285        C  0.92783973  0.41375755  0.23073275    -0.13200
C286        C  0.92133879  0.39787431  0.18747871    -0.08900
C287        C  0.95926117  0.38463666  0.16584114     0.06700
C288        C  0.00228667  0.38873217  0.18660993    -0.14000
S289        S  0.97739180  0.43824267  0.30674094    -0.30900
H290        H  0.89928345  0.42379878  0.24805140     0.10900
S291        S  0.95410868  0.36237977  0.11230348    -0.28000
H292        H  0.03161870  0.37919810  0.16990016     0.08100
H293        H  0.17886130  0.46636155  0.21802522     0.26600
H294        H  0.93229670  0.44721408  0.30997972     0.21400
H295        H  0.00049701  0.35744318  0.10517971     0.26700
H296        H  0.01529886  0.36228392  0.28519968     0.15500
C297        C  0.75751522  0.28313342  0.12503436    -0.11800
C298        C  0.78081690  0.27004061  0.08635136     0.14800
C299        C  0.80174921  0.28605550  0.04917973     0.01700
C300        C  0.79982409  0.31470728  0.05223588    -0.16100
C301        C  0.77837610  0.32790025  0.09237821    -0.10900
C302        C  0.75581910  0.31170090  0.12833715     0.08400
C303        C  0.78365585  0.23972486  0.08728392     0.09400
S304        S  0.83314152  0.27129046  0.99828702    -0.25200
H305        H  0.81745568  0.32673291  0.02448388     0.19700
S306        S  0.72376895  0.32608225  0.17902164    -0.30900
H307        H  0.74081473  0.27091047  0.15323551     0.10000
C308        C  0.81058746  0.22627619  0.12300400     0.03200
C309        C  0.81001913  0.19764589  0.12568855    -0.13200
C310        C  0.78372161  0.18193222  0.09282932    -0.08900
C311        C  0.75726910  0.19545173  0.05642297     0.06700
C312        C  0.75767152  0.22417626  0.05391127    -0.14000
S313        S  0.84667747  0.24559872  0.16440061    -0.30900
H314        H  0.83079523  0.18736308  0.15315882     0.10900
S315        S  0.72073902  0.17739224  0.01392975    -0.28000
H316        H  0.73676812  0.23451302  0.02662254     0.08100
H317        H  0.70660039  0.34805228  0.15085534     0.26600
H318        H  0.86714664  0.22303044  0.18792738     0.21400
H319        H  0.70822893  0.15686691  0.04801365     0.26700
H320        H  0.84803811  0.24787409  0.02392893     0.15500
C321        C  0.68637187  0.48479188  0.78177416    -0.11800
C322        C  0.72299051  0.48775484  0.81460029     0.14800
C323        C  0.75274064  0.51002807  0.80862717     0.01700
C324        C  0.74572391  0.52857754  0.76959858    -0.16100
C325        C  0.70906625  0.52576801  0.73653249    -0.10900
C326        C  0.67862486  0.50376076  0.74342861     0.08400
C327        C  0.72802378  0.46882651  0.85747789     0.09400
S328        S  0.79893983  0.51541060  0.85169468    -0.25200
H329        H  0.76917996  0.54533632  0.76468049     0.19700
S330        S  0.62801239  0.49975981  0.70680917    -0.30900
H331        H  0.66274774  0.46802023  0.78718074     0.10000
C332        C  0.69956016  0.47099481  0.89919579     0.03200
C333        C  0.70984634  0.45615689  0.94237874    -0.13200
C334        C  0.74867491  0.43942988  0.94556658    -0.08900
C335        C  0.77427038  0.43512434  0.90159853     0.06700
C336        C  0.76410840  0.45019112  0.85850407    -0.14000
S337        S  0.65255893  0.49466929  0.89922308    -0.30900
H338        H  0.68900537  0.45924681  0.97502859     0.10900
S339        S  0.82066220  0.41136019  0.89785900    -0.28000
H340        H  0.78535709  0.44799287  0.82583940     0.08100
H341        H  0.61852841  0.52795660  0.70403822     0.26600
H342        H  0.63549979  0.48769802  0.94641736     0.21400
H343        H  0.79897450  0.39112218  0.92650554     0.26700
H344        H  0.81474648  0.54006224  0.83096250     0.15500
C345        C  0.78922073  0.55187985  0.38571968    -0.11800
C346        C  0.75401632  0.54514934  0.35292535     0.14800
C347        C  0.70975652  0.55438289  0.36364615     0.01700
C348        C  0.70154347  0.56852560  0.40816595    -0.16100
C349        C  0.73608597  0.57315817  0.44324116    -0.10900
C350        C  0.78092758  0.56602487  0.43017447     0.08400
C351        C  0.76390509  0.52570007  0.31183689     0.09400
S352        S  0.66154020  0.54753936  0.32419656    -0.25200
H353        H  0.66698311  0.57395853  0.41712341     0.19700
S354        S  0.82892480  0.57401740  0.46886300    -0.30900
H355        H  0.82336935  0.54527698  0.37730254     0.10000
C356        C  0.76885273  0.53404114  0.26194070     0.03200
C357        C  0.77733741  0.51427972  0.22490545    -0.13200
C358        C  0.78088810  0.48622029  0.23669495    -0.08900
C359        C  0.77718096  0.47818025  0.28735107     0.06700
C360        C  0.76869433  0.49798421  0.32396042    -0.14000
S361        S  0.76381704  0.56975849  0.24558788    -0.30900
H362        H  0.77989110  0.52065514  0.18638057     0.10900
S363        S  0.78455193  0.44295894  0.30674777    -0.28000
H364        H  0.76550621  0.49191004  0.36259275     0.08100
H365        H  0.81029988  0.59848932  0.48732592     0.26600
H366        H  0.77137950  0.56652398  0.19423219     0.21400
H367        H  0.77388601  0.44660806  0.35732768     0.26700
H368        H  0.67896724  0.52499055  0.29817484     0.15500
C369        C  0.51770411  0.53936566  0.47220432    -0.11800
C370        C  0.51168020  0.51128469  0.47895112     0.14800
C371        C  0.54363451  0.49634524  0.50726855     0.01700
C372        C  0.58044787  0.51008605  0.52903975    -0.16100
C373        C  0.58575995  0.53849071  0.52334040    -0.10900
C374        C  0.55440968  0.55299628  0.49313991     0.08400
C375        C  0.47315327  0.49838247  0.45284344     0.09400
S376        S  0.53909273  0.45994935  0.51731582    -0.25200
H377        H  0.60429110  0.49869445  0.55162896     0.19700
S378        S  0.56012417  0.58866363  0.47705589    -0.30900
H379        H  0.49403246  0.55068486  0.44921134     0.10000
C380        C  0.42838709  0.50156662  0.46988504     0.03200
C381        C  0.39258251  0.49016435  0.44243707    -0.13200
C382        C  0.40076703  0.47588498  0.39795960    -0.08900
C383        C  0.44561709  0.47411049  0.37978867     0.06700
C384        C  0.48122665  0.48500667  0.40767684    -0.14000
S385        S  0.41712894  0.51919118  0.52763664    -0.30900
H386        H  0.35847693  0.49125493  0.45681940     0.10900
S387        S  0.45978107  0.45866506  0.32086570    -0.28000
H388        H  0.51544299  0.48348252  0.39367428     0.08100
H389        H  0.60704617  0.58744125  0.47108460     0.26600
H390        H  0.36970189  0.51874508  0.52382812     0.21400
H391        H  0.41833104  0.46447563  0.29759805     0.26700
H392        H  0.49188139  0.45830745  0.51237070     0.15500
C393        C  0.52034718  0.00216995  0.50822598    -0.11800
C394        C  0.52040887  0.99978501  0.45603201     0.14800
C395        C  0.55909423  0.98872991  0.43232605     0.01700
C396        C  0.59586359  0.97994145  0.46110426    -0.16100
C397        C  0.59439397  0.98085338  0.51325635    -0.10900
C398        C  0.55646077  0.99242361  0.53698804     0.08400
C399        C  0.48064538  0.01014432  0.42752656     0.09400
S400        S  0.56263148  0.98341169  0.36596548    -0.25200
H401        H  0.62444989  0.97041431  0.44278400     0.19700
S402        S  0.55171713  0.99454879  0.60382883    -0.30900
H403        H  0.49157205  0.01131513  0.52678473     0.10000
C404        C  0.43628223  0.00045568  0.43622330     0.03200
C405        C  0.39957549  0.01269530  0.41133590    -0.13200
C406        C  0.40621655  0.03412347  0.37715245    -0.08900
C407        C  0.45116354  0.04192831  0.36536828     0.06700
C408        C  0.48736183  0.03063053  0.39177078    -0.14000
S409        S  0.42618570  0.97244813  0.47880485    -0.30900
H410        H  0.36549006  0.00630852  0.42010532     0.10900
S411        S  0.46514457  0.06582730  0.31649903    -0.28000
H412        H  0.52127955  0.03788489  0.38422184     0.08100
H413        H  0.59841183  0.99470980  0.61363649     0.26600
H414        H  0.37879841  0.97213789  0.47450418     0.21400
H415        H  0.42964531  0.05767298  0.28489314     0.26700
H416        H  0.51636661  0.97802135  0.35902403     0.15500
C417        C  0.71889112  0.78781595  0.55109300    -0.11800
C418        C  0.70110074  0.77204532  0.59013659     0.14800
C419        C  0.68123148  0.78553081  0.63115027     0.01700
C420        C  0.68070138  0.81413068  0.63286790    -0.16100
C421        C  0.69800699  0.83010966  0.59367364    -0.10900
C422        C  0.71737328  0.81653260  0.55213327     0.08400
C423        C  0.70539089  0.74170249  0.58861171     0.09400
S424        S  0.65452826  0.76744908  0.68181801    -0.25200
H425        H  0.66496419  0.82397505  0.66459473     0.19700
S426        S  0.74160304  0.83424510  0.49967279    -0.30900
H427        H  0.73465112  0.77762248  0.51972823     0.10000
C428        C  0.68360438  0.72576760  0.55197238     0.03200
C429        C  0.68569845  0.69705416  0.55482960    -0.13200
C430        C  0.70860822  0.68383159  0.59399736    -0.08900
C431        C  0.73228749  0.69995660  0.62914659     0.06700
C432        C  0.73042090  0.72854595  0.62604903    -0.14000
S433        S  0.65006468  0.74177096  0.50381345    -0.30900
H434        H  0.66725137  0.68489349  0.52806485     0.10900
S435        S  0.76560263  0.68550548  0.67885644    -0.28000
H436        H  0.74798492  0.74069086  0.65360449     0.08100
H437        H  0.76130067  0.85517749  0.52802491     0.26600
H438        H  0.64003723  0.71774976  0.47714702     0.21400
H439        H  0.78065846  0.66299569  0.65091054     0.26700
H440        H  0.63891370  0.74539087  0.65291293     0.15500
C441        C  0.79311213  0.96130497  0.38541829    -0.11800
C442        C  0.75893478  0.96377559  0.34949929     0.14800
C443        C  0.71864096  0.94866990  0.35566339     0.01700
C444        C  0.71042736  0.93531138  0.40084291    -0.16100
C445        C  0.74228424  0.93580551  0.43979317    -0.10900
C446        C  0.78573939  0.94681745  0.42977180     0.08400
C447        C  0.76379101  0.98458295  0.30945645     0.09400
S448        S  0.67510533  0.94734702  0.30863518    -0.25200
H449        H  0.67754139  0.92604449  0.40655949     0.19700
S450        S  0.83270197  0.94376806  0.47223859    -0.30900
H451        H  0.82508608  0.97173102  0.37985058     0.10000
C452        C  0.73606739  0.00811090  0.30860016     0.03200
C453        C  0.74061258  0.02710693  0.26980005    -0.13200
C454        C  0.77280214  0.02353887  0.23185682    -0.08900
C455        C  0.80215113  0.00062413  0.23436570     0.06700
C456        C  0.79697328  0.98130346  0.27266953    -0.14000
S457        S  0.69568537  0.01453034  0.35779173    -0.30900
H458        H  0.71854151  0.04478692  0.26884085     0.10900
S459        S  0.84823826  0.99560612  0.19158142    -0.28000
H460        H  0.81921157  0.96367629  0.27406378     0.08100
H461        H  0.81996529  0.91770650  0.48961798     0.26600
H462        H  0.67367354  0.03676241  0.33490669     0.21400
H463        H  0.86049441  0.02342573  0.19111268     0.26700
H464        H  0.70381102  0.95241031  0.26797139     0.15500
C465        C  0.69367714  0.00280015  0.81541514    -0.11800
C466        C  0.70789070  0.02959189  0.80510612     0.14800
C467        C  0.71547868  0.03726712  0.75505229     0.01700
C468        C  0.71102251  0.01769144  0.71703583    -0.16100
C469        C  0.69864208  0.99048237  0.72764198    -0.10900
C470        C  0.68822472  0.98345808  0.77748393     0.08400
C471        C  0.71923267  0.04765709  0.84797284     0.09400
S472        S  0.73182807  0.07149245  0.73748407    -0.25200
H473        H  0.71869519  0.02357980  0.67908913     0.19700
S474        S  0.66698624  0.95032572  0.79517537    -0.30900
H475        H  0.68749721  0.99673671  0.85363354     0.10000
C476        C  0.68655593  0.05561828  0.88330612     0.03200
C477        C  0.70041813  0.06799844  0.92806709    -0.13200
C478        C  0.74641328  0.07304769  0.93821822    -0.08900
C479        C  0.77852753  0.06719459  0.90036493     0.06700
C480        C  0.76465169  0.05427911  0.85640107    -0.14000
S481        S  0.62728078  0.04936465  0.87191517    -0.30900
H482        H  0.67542932  0.07268519  0.95621863     0.10900
S483        S  0.83827845  0.07317455  0.90706019    -0.28000
H484        H  0.78989396  0.04828326  0.82925562     0.08100
H485        H  0.63710520  0.94881247  0.75456335     0.26600
H486        H  0.61092118  0.06323811  0.91410066     0.21400
H487        H  0.83256654  0.10120506  0.91743355     0.26700
H488        H  0.71143284  0.08470588  0.77817806     0.15500
C489        C  0.02678907  0.50345136  0.89890407    -0.11800
C490        C  0.02193904  0.50267725  0.95090340     0.14800
C491        C  0.05875201  0.51034876  0.98128063     0.01700
C492        C  0.09802135  0.52046769  0.95918511    -0.16100
C493        C  0.10224092  0.52261702  0.90721121    -0.10900
C494        C  0.06622628  0.51362663  0.87666615     0.08400
C495        C  0.97892871  0.49269226  0.97242860     0.09400
S496        S  0.05770807  0.50815185  0.04838303    -0.25200
H497        H  0.12538730  0.52739719  0.98298267     0.19700
S498        S  0.06689168  0.51613121  0.80968590    -0.30900
H499        H  0.99886400  0.49699634  0.87544178     0.10000
C500        C  0.94916398  0.50984674  0.99924092     0.03200
C501        C  0.91125916  0.49839054  0.02317920    -0.13200
C502        C  0.90285415  0.47016089  0.02051947    -0.08900
C503        C  0.93119926  0.45347356  0.99057936     0.06700
C504        C  0.96889258  0.46493312  0.96726256    -0.14000
S505        S  0.95955022  0.54620733  0.00293085    -0.30900
H506        H  0.88908294  0.51116969  0.04515189     0.10900
S507        S  0.91960233  0.41745308  0.98086683    -0.28000
H508        H  0.99149488  0.45211062  0.94583790     0.08100
H509        H  0.08998848  0.54115827  0.80715501     0.26600
H510        H  0.92207394  0.55260474  0.03294995     0.21400
H511        H  0.95420635  0.41232647  0.94622664     0.26700
H512        H  0.02819896  0.48567202  0.05138586     0.15500
C513        C  0.91544990  0.61007532  0.66280440    -0.11800
C514        C  0.93067161  0.59007010  0.69646425     0.14800
C515        C  0.90207360  0.56781750  0.70823715     0.01700
C516        C  0.85879623  0.56648450  0.68725275    -0.16100
C517        C  0.84323662  0.58682691  0.65445860    -0.10900
C518        C  0.87240365  0.60853057  0.64128835     0.08400
C519        C  0.97541682  0.59382613  0.72056147     0.09400
S520        S  0.91817732  0.54082395  0.75062632    -0.25200
H521        H  0.83654894  0.54992451  0.69795142     0.19700
S522        S  0.85702711  0.63473868  0.59706903    -0.30900
H523        H  0.93716605  0.62717879  0.65358832     0.10000
C524        C  0.01581817  0.59382120  0.69276063     0.03200
C525        C  0.05724442  0.59779425  0.71720074    -0.13200
C526        C  0.05941552  0.60142283  0.76910502    -0.08900
C527        C  0.01860661  0.60178363  0.79668931     0.06700
C528        C  0.97732994  0.59798955  0.77217104    -0.14000
S529        S  0.01496411  0.58715499  0.62658542    -0.30900
H530        H  0.08828732  0.59696051  0.69596544     0.10900
S531        S  0.01645111  0.60751231  0.86294889    -0.28000
H532        H  0.94626018  0.59841887  0.79350517     0.08100
H533        H  0.82652906  0.61857412  0.56981429     0.26600
H534        H  0.06173927  0.58978096  0.61854602     0.21400
H535        H  0.05064887  0.62753993  0.86297401     0.26700
H536        H  0.96470938  0.54174012  0.74009778     0.15500
C537        C  0.42452592  0.57184605  0.77210156    -0.11800
C538        C  0.43545021  0.59806399  0.75416859     0.14800
C539        C  0.40154639  0.61834916  0.75222245     0.01700
C540        C  0.35732569  0.61173108  0.76569369    -0.16100
C541        C  0.34592779  0.58540820  0.78252124    -0.10900
C542        C  0.38012545  0.56532974  0.78666232     0.08400
C543        C  0.48085209  0.60291425  0.73246316     0.10200
S544        S  0.41242881  0.65297788  0.73211566    -0.25200
H545        H  0.33141726  0.62738320  0.76304159     0.19700
S546        S  0.36690914  0.53088999  0.80641513    -0.30900
H547        H  0.45053945  0.55625226  0.77287183     0.10000
C548        C  0.52033955  0.60300149  0.76169884     0.03200
C549        C  0.56240212  0.60702641  0.73869889    -0.13200
C550        C  0.56602612  0.61144732  0.68697991    -0.08900
C551        C  0.52584946  0.61237760  0.65811901     0.06700
C552        C  0.48405208  0.60778100  0.68119954    -0.14000
S553        S  0.51707086  0.59845741  0.82833287    -0.30900
H554        H  0.59281129  0.60643770  0.76123554     0.10900
S555        S  0.52663162  0.61843994  0.59175370    -0.28000
H556        H  0.45331984  0.60781971  0.65920227     0.08100
H557        H  0.41134736  0.52066596  0.80496150     0.26600
H558        H  0.56297538  0.60349708  0.83845479     0.21400
H559        H  0.48003327  0.61538671  0.58298511     0.26700
H560        H  0.45762297  0.65381272  0.74829874     0.15500
C561        C  0.30698886  0.54970355  0.03982231    -0.11800
C562        C  0.27501197  0.54913176  0.07824026     0.14800
C563        C  0.23575429  0.56550030  0.07423486     0.01700
C564        C  0.22667185  0.57927100  0.02952470    -0.16100
C565        C  0.25608724  0.57700565  0.98881711    -0.10900
C566        C  0.29806033  0.56364198  0.99535751     0.08400
C567        C  0.27938402  0.52773566  0.11710009     0.09400
S568        S  0.19364212  0.56695031  0.12265041    -0.25200
H569        H  0.19421585  0.58928004  0.02478903     0.19700
S570        S  0.33928893  0.56137645  0.94610763    -0.30900
H571        H  0.33753515  0.53751946  0.04298439     0.10000
C572        C  0.25515656  0.50300409  0.11311119     0.03200
C573        C  0.25905836  0.48323157  0.15071630    -0.13200
C574        C  0.28724418  0.48733670  0.19230263    -0.08900
C575        C  0.31361369  0.51158558  0.19443019     0.06700
C576        C  0.30894541  0.53159159  0.15723837    -0.14000
S577        S  0.21923182  0.49653939  0.05987183    -0.30900
H578        H  0.23919437  0.46471397  0.14809193     0.10900
S579        S  0.35522112  0.51780466  0.24206963    -0.28000
H580        H  0.32872114  0.55021282  0.15936916     0.08100
H581        H  0.32450776  0.58494225  0.92069282     0.26600
H582        H  0.20794131  0.46938411  0.07206959     0.21400
H583        H  0.37172051  0.49079856  0.24128237     0.26700
H584        H  0.22328849  0.56119910  0.16222684     0.15500
C585        C  0.20578311  0.47790109  0.65618417    -0.11800
C586        C  0.21315301  0.48870856  0.60860051     0.14800
C587        C  0.21150950  0.51741038  0.60173157     0.01700
C588        C  0.20455113  0.53459072  0.64285623    -0.16100
C589        C  0.19927689  0.52389033  0.69104250    -0.10900
C590        C  0.19855567  0.49504332  0.69722255     0.08400
C591        C  0.22586429  0.46981214  0.56768358     0.09400
S592        S  0.22137033  0.53352799  0.54224215    -0.25200
H593        H  0.20557689  0.55660081  0.63747535     0.19700
S594        S  0.18868197  0.47876697  0.75644282    -0.30900
H595        H  0.20659438  0.45588899  0.66156489     0.10000
C596        C  0.27156625  0.46423348  0.55700333     0.03200
C597        C  0.28264669  0.44886635  0.51457302    -0.13200
C598        C  0.24891025  0.43908760  0.48222113    -0.08900
C599        C  0.20299682  0.44279653  0.49550659     0.06700
C600        C  0.19200335  0.45813874  0.53794783    -0.14000
S601        S  0.31585795  0.47793740  0.59603917    -0.30900
H602        H  0.31783862  0.44621138  0.50464928     0.10900
S603        S  0.15701283  0.42896729  0.45930572    -0.28000
H604        H  0.15679635  0.46180813  0.54692685     0.08100
H605        H  0.15825018  0.49881432  0.77315734     0.26600
H606        H  0.35239887  0.46646887  0.56983150     0.21400
H607        H  0.18156580  0.40654281  0.44060586     0.26700
H608        H  0.20595245  0.51189918  0.51236332     0.15500
C609        C  0.40981682  0.93820381  0.75162702    -0.11800
C610        C  0.42693395  0.91191426  0.74257658     0.14800
C611        C  0.40032339  0.88888968  0.75415360     0.01700
C612        C  0.35670037  0.89264412  0.77277597    -0.16100
C613        C  0.33803462  0.91898708  0.77910899    -0.10900
C614        C  0.36598908  0.94204682  0.77002855     0.08400
C615        C  0.47219267  0.90918755  0.71991952     0.09400
S616        S  0.41919206  0.85419294  0.74401864    -0.25200
H617        H  0.33647285  0.87462684  0.78024925     0.19700
S618        S  0.34769334  0.97687233  0.77863402    -0.30900
H619        H  0.43059234  0.95590450  0.74342420     0.10000
C620        C  0.47916037  0.91513768  0.66914401     0.03200
C621        C  0.52247837  0.91226572  0.64884307    -0.13200
C622        C  0.55903207  0.90373437  0.67831913    -0.08900
C623        C  0.55167328  0.89706831  0.72890011     0.06700
C624        C  0.50841957  0.90005841  0.74922963    -0.14000
S625        S  0.43282640  0.92626072  0.63016298    -0.30900
H626        H  0.52826538  0.91751832  0.61014091     0.10900
S627        S  0.59562320  0.88394209  0.76890917    -0.28000
H628        H  0.50281526  0.89505965  0.78804877     0.08100
H629        H  0.33521345  0.97254160  0.82858986     0.26600
H630        H  0.45784585  0.92925718  0.58597377     0.21400
H631        H  0.61900919  0.86992478  0.73111723     0.26700
H632        H  0.44527228  0.85971719  0.70147661     0.15500
C633        C  0.90508071  0.88951311  0.65363656    -0.11800
C634        C  0.92759272  0.90881541  0.68310202     0.14800
C635        C  0.90677681  0.93426811  0.69308933     0.01700
C636        C  0.86278266  0.93915223  0.67597836    -0.16100
C637        C  0.83938878  0.91931163  0.64835038    -0.10900
C638        C  0.86153693  0.89461168  0.63571155     0.08400
C639        C  0.97265305  0.90172536  0.70293570     0.09400
S640        S  0.93396874  0.96098380  0.72854742    -0.25200
H641        H  0.84620579  0.95818083  0.68568417     0.19700
S642        S  0.83641574  0.86898770  0.59621054    -0.30900
H643        H  0.92145859  0.87029092  0.64484730     0.10000
C644        C  0.97934156  0.89571476  0.75368268     0.03200
C645        C  0.02335095  0.89134588  0.77142053    -0.13200
C646        C  0.06080377  0.89264591  0.73922596    -0.08900
C647        C  0.05325907  0.89648755  0.68759645     0.06700
C648        C  0.00942717  0.90127960  0.67020501    -0.14000
S649        S  0.93196695  0.89412321  0.79599760    -0.30900
H650        H  0.02869380  0.88820871  0.81081458     0.10900
S651        S  0.09771915  0.89543000  0.64176839    -0.28000
H652        H  0.00396447  0.90508106  0.63095165     0.08100
H653        H  0.81209956  0.88781493  0.56696964     0.26600
H654        H  0.95680429  0.88695646  0.83875523     0.21400
H655        H  0.12210430  0.87447400  0.66577631     0.26700
H656        H  0.97854279  0.95422254  0.71533468     0.15500
C657        C  0.23230788  0.78218574  0.87136557    -0.11800
C658        C  0.21262105  0.76568987  0.83437997     0.14800
C659        C  0.18912073  0.77830739  0.79479266     0.01700
C660        C  0.18643079  0.80684488  0.79253274    -0.16100
C661        C  0.20558340  0.82353758  0.82962066    -0.10900
C662        C  0.22949562  0.81091107  0.86913478     0.08400
C663        C  0.21561493  0.73540257  0.83838074     0.09400
S664        S  0.16076817  0.75920482  0.74646468    -0.25200
H665        H  0.16765668  0.81606031  0.76218458     0.19700
S666        S  0.25861773  0.83017322  0.91651415    -0.30900
H667        H  0.25048439  0.77262044  0.90175822     0.10000
C668        C  0.24218981  0.71968778  0.80553880     0.03200
C669        C  0.23842548  0.69097238  0.80587863    -0.13200
C670        C  0.20909719  0.67740277  0.83905458    -0.08900
C671        C  0.18543718  0.69347864  0.87480217     0.06700
C672        C  0.18847130  0.72206857  0.87338123    -0.14000
S673        S  0.28027656  0.73629847  0.76259167    -0.30900
H674        H  0.25752690  0.67913974  0.77906949     0.10900
S675        S  0.15056860  0.67930045  0.92339841    -0.28000
H676        H  0.16867421  0.73414532  0.89932106     0.08100
H677        H  0.27295981  0.85112816  0.88420959     0.26600
H678        H  0.30057834  0.71229106  0.74424533     0.21400
H679        H  0.18320716  0.65990500  0.93806035     0.26700
H680        H  0.14846833  0.73676723  0.77627620     0.15500
C681        C  0.27329911  0.04776411  0.56256031    -0.11800
C682        C  0.22902904  0.03808104  0.56874395     0.14800
C683        C  0.19657822  0.04377833  0.53168914     0.01700
C684        C  0.20962537  0.05739439  0.48811111    -0.16100
C685        C  0.25471385  0.06554945  0.47990839    -0.10900
C686        C  0.28662494  0.06113380  0.51863125     0.08400
C687        C  0.21932164  0.01888775  0.61032463     0.09400
S688        S  0.13873224  0.03235542  0.53608332    -0.25200
H689        H  0.18446979  0.06060786  0.45934592     0.19700
S690        S  0.34566786  0.06941711  0.51284063    -0.30900
H691        H  0.29841102  0.04324377  0.59078214     0.10000
C692        C  0.22145859  0.99039115  0.60296366     0.03200
C693        C  0.21255443  0.97265744  0.64283266    -0.13200
C694        C  0.20131027  0.98256184  0.69057013    -0.08900
C695        C  0.19761144  0.01135323  0.69711076     0.06700
C696        C  0.20748503  0.02906961  0.65731715    -0.14000
S697        S  0.23683323  0.97655396  0.54289068    -0.30900
H698        H  0.21521465  0.95082134  0.63675886     0.10900
S699        S  0.18130861  0.02702226  0.75499881    -0.28000
H700        H  0.20532639  0.05101441  0.66280488     0.08100
H701        H  0.35105253  0.05386345  0.46927925     0.26600
H702        H  0.23294620  0.94873108  0.55568635     0.21400
H703        H  0.14098704  0.01185817  0.75852321     0.26700
H704        H  0.13617281  0.03267555  0.58829470     0.15500
C705        C  0.28089988  0.95609597  0.04063370    -0.11800
C706        C  0.24545850  0.96548176  0.07076869     0.14800
C707        C  0.20067390  0.95781409  0.05921667     0.01700
C708        C  0.19196013  0.94283518  0.01583447    -0.16100
C709        C  0.22698503  0.93538695  0.98319245    -0.10900
C710        C  0.27222213  0.94104856  0.99704659     0.08400
C711        C  0.25550719  0.98604529  0.10986527     0.09400
S712        S  0.15285204  0.96843694  0.09609757    -0.25200
H713        H  0.15712401  0.93873873  0.00575597     0.19700
S714        S  0.31900179  0.92981561  0.95888117    -0.30900
H715        H  0.31522777  0.96176436  0.05010783     0.10000
C716        C  0.26996011  0.97848382  0.15777378     0.03200
C717        C  0.27757671  0.99885847  0.19373790    -0.13200
C718        C  0.27121057  0.02688683  0.18287794    -0.08900
C719        C  0.25811614  0.03434911  0.13381238     0.06700
C720        C  0.25026922  0.01381956  0.09820161    -0.14000
S721        S  0.27697581  0.94279541  0.17354850    -0.30900
H722        H  0.28742450  0.99277667  0.23089699     0.10900
S723        S  0.25212714  0.06973675  0.11496643    -0.28000
H724        H  0.23988263  0.01930646  0.06089111     0.08100
H725        H  0.35377033  0.93991868  0.98952456     0.26600
H726        H  0.29195573  0.94689166  0.22269811     0.21400
H727        H  0.23684807  0.06488621  0.06616282     0.26700
H728        H  0.17606071  0.97012558  0.14164522     0.15500
C729        C  0.00329182  0.96676394  0.94289917    -0.11800
C730        C  0.00093783  0.99530145  0.94224093     0.14800
C731        C  0.03647657  0.01036263  0.92003724     0.01700
C732        C  0.07346881  0.99643388  0.89899158    -0.16100
C733        C  0.07562541  0.96768159  0.89929761    -0.10900
C734        C  0.04011774  0.95286394  0.92269726     0.08400
C735        C  0.96300452  0.00831198  0.96952059     0.09400
S736        S  0.03631507  0.04723975  0.91699761    -0.25200
H737        H  0.10024854  0.00809605  0.88147696     0.19700
S738        S  0.04060760  0.91623940  0.93153170    -0.30900
H739        H  0.97678151  0.95517361  0.96118525     0.10000
C740        C  0.91794677  0.00649744  0.95248170     0.03200
C741        C  0.88286223  0.01768191  0.98132994    -0.13200
C742        C  0.89197163  0.03085152  0.02672033    -0.08900
C743        C  0.93704289  0.03148767  0.04453693     0.06700
C744        C  0.97189759  0.02049678  0.01565381    -0.14000
S745        S  0.90546279  0.99117541  0.89284155    -0.30900
H746        H  0.84854400  0.01744336  0.96726084     0.10900
S747        S  0.95233336  0.04570517  0.10415510    -0.28000
H748        H  0.00630201  0.02108559  0.02959498     0.08100
H749        H  0.08619199  0.91535656  0.94642833     0.26600
H750        H  0.85850384  0.99569914  0.89387137     0.21400
H751        H  0.91099205  0.03980338  0.12745273     0.26700
H752        H  0.98908110  0.05039295  0.91750418     0.15500
loop_ 
_geom_bond_atom_site_label_1 
_geom_bond_atom_site_label_2 
_geom_bond_distance 
_geom_bond_site_symmetry_2 
_ccdc_geom_bond_type 
O1          Cr19   1.965       .  S
O1            C9   1.260       .  A
O2          Cr19   2.005       .  S
O2            C3   1.264       .  A
C3            O4   1.260       .  A
C3          C694   1.499       .  S
O4          Cr20   1.989       .  S
O5          Cr20   2.044       .  S
O5            C6   1.274       .  A
C6            O7   1.254       .  A
C6          C733   1.489       .  S
O7          Cr21   1.955       .  S
O8          Cr21   2.017       .  S
O8            C9   1.270       .  A
C9          C646   1.481       .  S
O10         Cr19   2.008       .  S
O10          C18   1.266       .  A
O11         Cr19   1.959       .  S
O11          C12   1.262       .  A
C12          O13   1.273       .  A
C12         C613   1.490       .  S
O13         Cr20   2.030       .  S
O14         Cr20   1.967       .  S
O14          C15   1.256       .  A
C15          O16   1.268       .  A
C15         C709   1.486       .  S
O16         Cr21   2.023       .  S
O17         Cr21   1.990       .  S
O17          C18   1.262       .  A
C18         C661   1.488       .  S
Cr19         O22   1.760       .  S
Cr20         O22   1.768       .  S
Cr21         O22   1.766       .  S
O23         Cr41   1.970       .  S
O23          C31   1.260       .  A
O24         Cr41   1.980       .  S
O24          C25   1.256       .  A
C25          O26   1.264       .  A
C25         C493   1.475       .  S
O26         Cr42   2.010       .  S
O27         Cr42   1.989       .  S
O27          C28   1.259       .  A
C28          O29   1.262       .  A
C28         C589   1.487       .  S
O29         Cr43   1.997       .  S
O30         Cr43   2.013       .  S
O30          C31   1.270       .  A
C31         C526   1.485       .  S
O32         Cr41   1.994       .  S
O32          C40   1.257       .  A
O33         Cr41   1.993       .  S
O33          C34   1.267       .  A
C34          O35   1.266       .  A
C34         C565   1.472       .  S
O35         Cr42   1.992       .  S
O36         Cr42   1.985       .  S
O36          C37   1.264       .  A
C37          O38   1.267       .  A
C37         C541   1.480       .  S
O38         Cr43   1.996       .  S
O39         Cr43   1.997       .  S
O39          C40   1.261       .  A
C40         C670   1.499       .  S
Cr41         O44   1.778       .  S
Cr42         O44   1.773       .  S
Cr43         O44   1.775       .  S
O45         Cr63   2.013       .  S
O45          C53   1.268       .  A
O46         Cr63   1.964       .  S
O46          C47   1.255       .  A
C47          O48   1.268       .  A
C47         C397   1.470       .  S
O48         Cr64   2.028       .  S
O49         Cr64   1.987       .  S
O49          C50   1.261       .  A
C50          O51   1.266       .  A
C50         C469   1.490       .  S
O51         Cr65   2.013       .  S
O52         Cr65   1.965       .  S
O52          C53   1.258       .  A
C53         C622   1.473       .  S
O54         Cr63   1.980       .  S
O54          C62   1.259       .  A
O55         Cr63   2.016       .  S
O55          C56   1.269       .  A
C56          O57   1.259       .  A
C56         C445   1.493       .  S
O57         Cr64   1.972       .  S
O58         Cr64   2.025       .  S
O58          C59   1.271       .  A
C59          O60   1.259       .  A
C59         C637   1.475       .  S
O60         Cr65   1.963       .  S
O61         Cr65   2.011       .  S
O61          C62   1.267       .  A
C62         C421   1.490       .  S
Cr63         O66   1.768       .  S
Cr64         O66   1.773       .  S
Cr65         O66   1.766       .  S
O67         Cr85   1.970       .  S
O67          C75   1.261       .  A
O68         Cr85   2.000       .  S
O68          C69   1.263       .  A
C69          O70   1.261       .  A
C69         C325   1.485       .  S
O70         Cr86   1.990       .  S
O71         Cr86   2.037       .  S
O71          C72   1.271       .  A
C72          O73   1.253       .  A
C72         C373   1.483       .  S
O73         Cr87   1.955       .  S
O74         Cr87   2.020       .  S
O74          C75   1.270       .  A
C75         C550   1.491       .  S
O76         Cr85   2.013       .  S
O76          C84   1.265       .  A
O77         Cr85   1.969       .  S
O77          C78   1.263       .  A
C78          O79   1.274       .  A
C78         C517   1.476       .  S
O79         Cr86   2.028       .  S
O80         Cr86   1.975       .  S
O80          C81   1.260       .  A
C81          O82   1.268       .  A
C81         C349   1.491       .  S
O82         Cr87   2.020       .  S
O83         Cr87   1.979       .  S
O83          C84   1.259       .  A
C84         C430   1.486       .  S
Cr85         O88   1.769       .  S
Cr86         O88   1.772       .  S
Cr87         O88   1.766       .  S
O89        Cr107   1.962       .  S
O89          C97   1.261       .  A
O90        Cr107   2.010       .  S
O90          C91   1.265       .  A
C91          O92   1.264       .  A
C91         C358   1.495       .  S
O92        Cr108   1.991       .  S
O93        Cr108   2.045       .  S
O93          C94   1.272       .  A
C94          O95   1.251       .  A
C94         C502   1.480       .  S
O95        Cr109   1.947       .  S
O96        Cr109   2.016       .  S
O96          C97   1.269       .  A
C97         C286   1.489       .  S
O98        Cr107   2.014       .  S
O98         C106   1.266       .  A
O99        Cr107   1.961       .  S
O99         C100   1.259       .  A
C100        O101   1.271       .  A
C100        C262   1.460       .  S
O101       Cr108   2.022       .  S
O102       Cr108   1.963       .  S
O102        C103   1.257   1_554  A
C103        O104   1.269   1_556  A
C103        C334   1.497       .  S
O104       Cr109   2.032       .  S
O105       Cr109   1.980       .  S
O105        C106   1.260       .  A
C106        C301   1.486       .  S
Cr107       O110   1.759       .  S
Cr108       O110   1.767       .  S
Cr109       O110   1.762       .  S
O111       Cr129   2.019       .  S
O111        C119   1.270       .  A
O112       Cr129   1.955       .  S
O112        C113   1.255       .  A
C113        O114   1.271       .  A
C113        C742   1.481       .  S
O114       Cr130   2.032       .  S
O115       Cr130   1.987       .  S
O115        C116   1.259       .  A
C116        O117   1.264       .  A
C116        C454   1.490       .  S
O117       Cr131   2.008       .  S
O118       Cr131   1.961       .  S
O118        C119   1.259       .  A
C119        C214   1.484       .  S
O120       Cr129   1.983       .  S
O120        C128   1.260       .  A
O121       Cr129   2.017       .  S
O121        C122   1.267   1_554  A
C122        O123   1.261   1_556  A
C122        C478   1.495       .  S
O123       Cr130   1.977       .  S
O124       Cr130   2.031       .  S
O124        C125   1.274       .  A
C125        O126   1.262       .  A
C125        C238   1.485       .  S
O126       Cr131   1.964       .  S
O127       Cr131   2.011       .  S
O127        C128   1.266       .  A
C128        C310   1.481       .  S
Cr129       O132   1.766       .  S
Cr130       O132   1.768       .  S
Cr131       O132   1.767       .  S
O133       Cr151   2.020       .  S
O133        C141   1.270       .  A
O134       Cr151   1.955       .  S
O134        C135   1.256       .  A
C135        O136   1.272       .  A
C135        C382   1.479       .  S
O136       Cr152   2.032       .  S
O137       Cr152   1.982       .  S
O137        C138   1.258       .  A
C138        O139   1.265       .  A
C138        C574   1.492       .  S
O139       Cr153   2.011       .  S
O140       Cr153   1.953       .  S
O140        C141   1.258       .  A
C141        C253   1.487       .  S
O142       Cr151   1.991       .  S
O142        C150   1.263       .  A
O143       Cr151   2.021       .  S
O143        C144   1.268       .  A
C144        O145   1.257       .  A
C144        C598   1.485       .  S
O145       Cr152   1.969       .  S
O146       Cr152   2.029       .  S
O146        C147   1.274       .  A
C147        O148   1.260       .  A
C147        C277   1.479       .  S
O148       Cr153   1.952       .  S
O149       Cr153   2.014       .  S
O149        C150   1.265       .  A
C150        C190   1.500       .  S
Cr151       O154   1.766       .  S
Cr152       O154   1.766       .  S
Cr153       O154   1.765       .  S
O155       Cr173   1.966       .  S
O155        C163   1.262       .  A
O156       Cr173   2.018       .  S
O156        C157   1.264       .  A
C157        O158   1.258       .  A
C157        C718   1.497       .  S
O158       Cr174   1.979       .  S
O159       Cr174   2.030       .  S
O159        C160   1.271       .  A
C160        O161   1.254       .  A
C160        C406   1.489       .  S
O161       Cr175   1.955       .  S
O162       Cr175   2.022       .  S
O162        C163   1.271       .  A
C163        C229   1.491       .  S
O164       Cr173   2.017       .  S
O164        C172   1.266       .  A
O165       Cr173   1.961       .  S
O165        C166   1.261       .  A
C166        O167   1.274       .  A
C166        C205   1.474       .  S
O167       Cr174   2.028       .  S
O168       Cr174   1.965       .  S
O168        C169   1.258       .  A
C169        O170   1.269       .  A
C169        C685   1.496       .  S
O170       Cr175   2.029       .  S
O171       Cr175   1.983       .  S
O171        C172   1.260       .  A
C172        C181   1.483       .  S
Cr173       O176   1.770       .  S
Cr174       O176   1.768       .  S
Cr175       O176   1.768       .  S
C177        C178   1.405       .  A
C177        C182   1.400       .  A
C177        H187   1.084       .  S
C178        C183   1.495       .  S
C178        C179   1.418       .  A
C179        C180   1.406       .  A
C179        S184   1.804       .  S
C180        C181   1.404       .  A
C180        H185   1.083       .  S
C181        C182   1.412       .  A
C182        S186   1.799       .  S
C183        C188   1.413       .  A
C183        C192   1.402       .  A
S184        H200   1.406       .  S
S186        H197   1.406       .  S
C188        C189   1.408       .  A
C188        S193   1.807       .  S
C189        C190   1.409       .  A
C189        H194   1.081       .  S
C190        C191   1.422       .  A
C191        C192   1.401       .  A
C191        S195   1.802       .  S
C192        H196   1.083       .  S
S193        H198   1.407       .  S
S195        H199   1.408       .  S
C201        C202   1.402       .  A
C201        C206   1.399       .  A
C201        H211   1.083       .  S
C202        C207   1.480       .  S
C202        C203   1.413       .  A
C203        C204   1.398       .  A
C203        S208   1.802       .  S
C204        C205   1.403       .  A
C204        H209   1.083       .  S
C205        C206   1.415       .  A
C206        S210   1.804       .  S
C207        C212   1.408   1_455  A
C207        C216   1.402   1_455  A
S208        H224   1.405       .  S
S210        H221   1.407       .  S
C212        C213   1.399       .  A
C212        S217   1.807       .  S
C213        C214   1.408       .  A
C213        H218   1.085       .  S
C214        C215   1.416       .  A
C215        C216   1.399       .  A
C215        S219   1.802       .  S
C216        H220   1.086   1_655  S
S217        H222   1.407       .  S
S219        H223   1.407       .  S
C225        C226   1.403       .  A
C225        C230   1.405       .  A
C225        H235   1.084       .  S
C226        C231   1.485       .  S
C226        C227   1.410       .  A
C227        C228   1.397       .  A
C227        S232   1.805       .  S
C228        C229   1.409       .  A
C228        H233   1.084       .  S
C229        C230   1.417       .  A
C230        S234   1.807       .  S
C231        C236   1.410       .  A
C231        C240   1.403       .  A
S232        H248   1.406       .  S
S234        H245   1.407       .  S
C236        C237   1.404       .  A
C236        S241   1.807       .  S
C237        C238   1.408       .  A
C237        H242   1.082       .  S
C238        C239   1.415       .  A
C239        C240   1.400       .  A
C239        S243   1.800       .  S
C240        H244   1.084       .  S
S241        H246   1.407       .  S
S243        H247   1.407       .  S
C249        C250   1.401       .  A
C249        C254   1.404       .  A
C249        H259   1.084       .  S
C250        C255   1.472       .  S
C250        C251   1.406       .  A
C251        C252   1.392       .  A
C251        S256   1.805       .  S
C252        C253   1.410       .  A
C252        H257   1.085       .  S
C253        C254   1.418       .  A
C254        S258   1.808       .  S
C255        C260   1.409       .  A
C255        C264   1.402       .  A
S256        H272   1.406       .  S
S258        H269   1.407       .  S
C260        C261   1.399       .  A
C260        S265   1.806       .  S
C261        C262   1.401       .  A
C261        H266   1.084       .  S
C262        C263   1.409       .  A
C263        C264   1.397       .  A
C263        S267   1.803       .  S
C264        H268   1.085       .  S
S265        H270   1.407       .  S
S267        H271   1.405       .  S
C273        C274   1.403       .  A
C273        C278   1.399       .  A
C273        H283   1.084       .  S
C274        C279   1.478       .  S
C274        C275   1.409       .  A
C275        C276   1.395       .  A
C275        S280   1.804       .  S
C276        C277   1.407       .  A
C276        H281   1.085       .  S
C277        C278   1.415       .  A
C278        S282   1.802       .  S
C279        C284   1.404   1_455  A
C279        C288   1.402       .  A
S280        H296   1.406       .  S
S282        H293   1.406       .  S
C284        C285   1.398       .  A
C284        S289   1.808       .  S
C285        C286   1.411       .  A
C285        H290   1.082       .  S
C286        C287   1.420       .  A
C287        C288   1.404   1_655  A
C287        S291   1.810       .  S
C288        H292   1.083       .  S
S289        H294   1.407       .  S
S291        H295   1.407   1_655  S
C297        C298   1.402       .  A
C297        C302   1.399       .  A
C297        H307   1.084       .  S
C298        C303   1.483       .  S
C298        C299   1.412       .  A
C299        C300   1.403       .  A
C299        S304   1.804   1_554  S
C300        C301   1.408       .  A
C300        H305   1.083       .  S
C301        C302   1.416       .  A
C302        S306   1.802       .  S
C303        C308   1.409       .  A
C303        C312   1.404       .  A
S304        H320   1.405   1_556  S
S306        H317   1.407       .  S
C308        C309   1.400       .  A
C308        S313   1.808       .  S
C309        C310   1.405       .  A
C309        H314   1.083       .  S
C310        C311   1.415       .  A
C311        C312   1.405       .  A
C311        S315   1.802       .  S
C312        H316   1.083       .  S
S313        H318   1.407       .  S
S315        H319   1.407       .  S
C321        C322   1.404       .  A
C321        C326   1.404       .  A
C321        H331   1.087       .  S
C322        C327   1.484       .  S
C322        C323   1.409       .  A
C323        C324   1.400       .  A
C323        S328   1.809       .  S
C324        C325   1.408       .  A
C324        H329   1.082       .  S
C325        C326   1.415       .  A
C326        S330   1.802       .  S
C327        C332   1.406       .  A
C327        C336   1.403       .  A
S328        H344   1.407       .  S
S330        H341   1.407       .  S
C332        C333   1.400       .  A
C332        S337   1.808       .  S
C333        C334   1.412       .  A
C333        H338   1.083       .  S
C334        C335   1.419       .  A
C335        C336   1.404       .  A
C335        S339   1.800       .  S
C336        H340   1.085       .  S
S337        H342   1.407       .  S
S339        H343   1.408       .  S
C345        C346   1.403       .  A
C345        C350   1.402       .  A
C345        H355   1.084       .  S
C346        C351   1.486       .  S
C346        C347   1.415       .  A
C347        C348   1.403       .  A
C347        S352   1.808       .  S
C348        C349   1.408       .  A
C348        H353   1.084       .  S
C349        C350   1.416       .  A
C350        S354   1.802       .  S
C351        C356   1.408       .  A
C351        C360   1.399       .  A
S352        H368   1.403       .  S
S354        H365   1.407       .  S
C356        C357   1.409       .  A
C356        S361   1.805       .  S
C357        C358   1.410       .  A
C357        H362   1.083       .  S
C358        C359   1.420       .  A
C359        C360   1.403       .  A
C359        S363   1.810       .  S
C360        H364   1.083       .  S
S361        H366   1.407       .  S
S363        H367   1.406       .  S
C369        C370   1.395       .  A
C369        C374   1.392       .  A
C369        H379   1.084       .  S
C370        C375   1.479       .  S
C370        C371   1.415       .  A
C371        C372   1.407       .  A
C371        S376   1.803       .  S
C372        C373   1.405       .  A
C372        H377   1.083       .  S
C373        C374   1.420       .  A
C374        S378   1.803       .  S
C375        C380   1.410       .  A
C375        C384   1.399       .  A
S376        H392   1.405       .  S
S378        H389   1.399       .  S
C380        C381   1.406       .  A
C380        S385   1.806       .  S
C381        C382   1.405       .  A
C381        H386   1.082       .  S
C382        C383   1.417       .  A
C383        C384   1.398       .  A
C383        S387   1.803       .  S
C384        H388   1.083       .  S
S385        H390   1.407       .  S
S387        H391   1.405       .  S
C393        C394   1.407   1_545  A
C393        C398   1.401   1_545  A
C393        H403   1.083       .  S
C394        C399   1.491   1_565  S
C394        C395   1.417       .  A
C395        C396   1.401       .  A
C395        S400   1.805       .  S
C396        C397   1.402       .  A
C396        H401   1.084       .  S
C397        C398   1.409       .  A
C398        S402   1.804       .  S
C399        C404   1.415       .  A
C399        C408   1.401       .  A
S400        H416   1.406       .  S
S402        H413   1.406       .  S
C404        C405   1.407       .  A
C404        S409   1.808   1_545  S
C405        C406   1.406       .  A
C405        H410   1.082       .  S
C406        C407   1.419       .  A
C407        C408   1.397       .  A
C407        S411   1.805       .  S
C408        H412   1.084       .  S
S409        H414   1.407       .  S
S411        H415   1.408       .  S
C417        C418   1.404       .  A
C417        C422   1.404       .  A
C417        H427   1.084       .  S
C418        C423   1.488       .  S
C418        C419   1.412       .  A
C419        C420   1.398       .  A
C419        S424   1.805       .  S
C420        C421   1.407       .  A
C420        H425   1.084       .  S
C421        C422   1.419       .  A
C422        S426   1.802       .  S
C423        C428   1.411       .  A
C423        C432   1.403       .  A
S424        H440   1.406       .  S
S426        H437   1.402       .  S
C428        C429   1.406       .  A
C428        S433   1.807       .  S
C429        C430   1.407       .  A
C429        H434   1.081       .  S
C430        C431   1.415       .  A
C431        C432   1.400       .  A
C431        S435   1.802       .  S
C432        H436   1.082       .  S
S433        H438   1.407       .  S
S435        H439   1.404       .  S
C441        C442   1.402       .  A
C441        C446   1.403       .  A
C441        H451   1.085       .  S
C442        C447   1.486       .  S
C442        C443   1.412       .  A
C443        C444   1.399       .  A
C443        S448   1.804       .  S
C444        C445   1.408       .  A
C444        H449   1.084       .  S
C445        C446   1.420       .  A
C446        S450   1.803       .  S
C447        C452   1.412   1_565  A
C447        C456   1.403       .  A
S448        H464   1.406       .  S
S450        H461   1.407       .  S
C452        C453   1.402       .  A
C452        S457   1.810       .  S
C453        C454   1.406       .  A
C453        H458   1.083       .  S
C454        C455   1.418       .  A
C455        C456   1.404   1_545  A
C455        S459   1.801   1_545  S
C456        H460   1.084       .  S
S457        H462   1.407       .  S
S459        H463   1.407   1_565  S
C465        C466   1.402       .  A
C465        C470   1.399   1_545  A
C465        H475   1.084   1_545  S
C466        C471   1.489       .  S
C466        C467   1.414       .  A
C467        C468   1.406       .  A
C467        S472   1.803       .  S
C468        C469   1.408   1_545  A
C468        H473   1.083       .  S
C469        C470   1.416       .  A
C470        S474   1.800       .  S
C471        C476   1.410       .  A
C471        C480   1.401       .  A
S472        H488   1.406       .  S
S474        H485   1.405       .  S
C476        C477   1.407       .  A
C476        S481   1.806       .  S
C477        C478   1.409       .  A
C477        H482   1.082       .  S
C478        C479   1.421       .  A
C479        C480   1.400       .  A
C479        S483   1.801       .  S
C480        H484   1.084       .  S
S481        H486   1.407       .  S
S483        H487   1.408       .  S
C489        C490   1.405       .  A
C489        C494   1.402       .  A
C489        H499   1.086   1_455  S
C490        C495   1.481   1_455  S
C490        C491   1.411       .  A
C491        C492   1.396       .  A
C491        S496   1.806   1_556  S
C492        C493   1.406       .  A
C492        H497   1.085       .  S
C493        C494   1.414       .  A
C494        S498   1.803       .  S
C495        C500   1.413       .  A
C495        C504   1.395       .  A
S496        H512   1.405       .  S
S498        H509   1.402       .  S
C500        C501   1.409   1_556  A
C500        S505   1.805   1_556  S
C501        C502   1.403       .  A
C501        H506   1.081       .  S
C502        C503   1.420   1_554  A
C503        C504   1.397       .  A
C503        S507   1.812       .  S
C504        H508   1.082       .  S
S505        H510   1.407       .  S
S507        H511   1.406       .  S
C513        C514   1.405       .  A
C513        C518   1.400       .  A
C513        H523   1.083       .  S
C514        C519   1.485       .  S
C514        C515   1.414       .  A
C515        C516   1.400       .  A
C515        S520   1.805       .  S
C516        C517   1.405       .  A
C516        H521   1.082       .  S
C517        C518   1.412       .  A
C518        S522   1.804       .  S
C519        C524   1.410   1_655  A
C519        C528   1.402       .  A
S520        H536   1.406       .  S
S522        H533   1.405       .  S
C524        C525   1.403       .  A
C524        S529   1.807       .  S
C525        C526   1.407       .  A
C525        H530   1.082       .  S
C526        C527   1.417       .  A
C527        C528   1.399   1_455  A
C527        S531   1.803       .  S
C528        H532   1.084       .  S
S529        H534   1.407       .  S
S531        H535   1.408       .  S
C537        C538   1.406       .  A
C537        C542   1.407       .  A
C537        H547   1.083       .  S
C538        C543   1.484       .  S
C538        C539   1.410       .  A
C539        C540   1.396       .  A
C539        S544   1.804       .  S
C540        C541   1.404       .  A
C540        H545   1.085       .  S
C541        C542   1.413       .  A
C542        S546   1.807       .  S
C543        C548   1.407       .  A
C543        C552   1.400       .  A
S544        H560   1.406       .  S
S546        H557   1.407       .  S
C548        C549   1.404       .  A
C548        S553   1.806       .  S
C549        C550   1.410       .  A
C549        H554   1.084       .  S
C550        C551   1.419       .  A
C551        C552   1.402       .  A
C551        S555   1.807       .  S
C552        H556   1.084       .  S
S553        H558   1.407       .  S
S555        H559   1.406       .  S
C561        C562   1.401       .  A
C561        C566   1.399   1_554  A
C561        H571   1.085       .  S
C562        C567   1.482       .  S
C562        C563   1.414       .  A
C563        C564   1.402       .  A
C563        S568   1.803       .  S
C564        C565   1.402   1_554  A
C564        H569   1.085       .  S
C565        C566   1.413       .  A
C566        S570   1.804       .  S
C567        C572   1.409       .  A
C567        C576   1.400       .  A
S568        H584   1.406       .  S
S570        H581   1.407       .  S
C572        C573   1.402       .  A
C572        S577   1.809       .  S
C573        C574   1.408       .  A
C573        H578   1.081       .  S
C574        C575   1.420       .  A
C575        C576   1.404       .  A
C575        S579   1.801       .  S
C576        H580   1.083       .  S
S577        H582   1.407       .  S
S579        H583   1.406       .  S
C585        C586   1.400       .  A
C585        C590   1.401       .  A
C585        H595   1.085       .  S
C586        C591   1.484       .  S
C586        C587   1.415       .  A
C587        C588   1.403       .  A
C587        S592   1.805       .  S
C588        C589   1.404       .  A
C588        H593   1.085       .  S
C589        C590   1.419       .  A
C590        S594   1.802       .  S
C591        C596   1.409       .  A
C591        C600   1.402       .  A
S592        H608   1.403       .  S
S594        H605   1.404       .  S
C596        C597   1.404       .  A
C596        S601   1.807       .  S
C597        C598   1.407       .  A
C597        H602   1.083       .  S
C598        C599   1.416       .  A
C599        C600   1.403       .  A
C599        S603   1.803       .  S
C600        H604   1.084       .  S
S601        H606   1.407       .  S
S603        H607   1.407       .  S
C609        C610   1.402       .  A
C609        C614   1.401       .  A
C609        H619   1.084       .  S
C610        C615   1.477       .  S
C610        C611   1.408       .  A
C611        C612   1.397       .  A
C611        S616   1.805       .  S
C612        C613   1.410       .  A
C612        H617   1.083       .  S
C613        C614   1.419       .  A
C614        S618   1.800       .  S
C615        C620   1.410       .  A
C615        C624   1.402       .  A
S616        H632   1.405       .  S
S618        H629   1.408       .  S
C620        C621   1.400       .  A
C620        S625   1.807       .  S
C621        C622   1.403       .  A
C621        H626   1.084       .  S
C622        C623   1.414       .  A
C623        C624   1.399       .  A
C623        S627   1.803       .  S
C624        H628   1.084       .  S
S625        H630   1.407       .  S
S627        H631   1.407       .  S
C633        C634   1.400       .  A
C633        C638   1.397       .  A
C633        H643   1.083       .  S
C634        C639   1.476       .  S
C634        C635   1.413       .  A
C635        C636   1.400       .  A
C635        S640   1.805       .  S
C636        C637   1.403       .  A
C636        H641   1.083       .  S
C637        C638   1.414       .  A
C638        S642   1.802       .  S
C639        C644   1.408       .  A
C639        C648   1.400   1_655  A
S640        H656   1.405       .  S
S642        H653   1.406       .  S
C644        C645   1.402   1_655  A
C644        S649   1.807       .  S
C645        C646   1.408       .  A
C645        H650   1.081       .  S
C646        C647   1.417       .  A
C647        C648   1.397       .  A
C647        S651   1.803       .  S
C648        H652   1.082       .  S
S649        H654   1.407       .  S
S651        H655   1.408       .  S
C657        C658   1.406       .  A
C657        C662   1.407       .  A
C657        H667   1.083       .  S
C658        C663   1.486       .  S
C658        C659   1.411       .  A
C659        C660   1.397       .  A
C659        S664   1.805       .  S
C660        C661   1.407       .  A
C660        H665   1.084       .  S
C661        C662   1.416       .  A
C662        S666   1.802       .  S
C663        C668   1.410       .  A
C663        C672   1.398       .  A
S664        H680   1.405       .  S
S666        H677   1.407       .  S
C668        C669   1.407       .  A
C668        S673   1.806       .  S
C669        C670   1.410       .  A
C669        H674   1.083       .  S
C670        C671   1.425       .  A
C671        C672   1.400       .  A
C671        S675   1.803       .  S
C672        H676   1.085       .  S
S673        H678   1.407       .  S
S675        H679   1.408       .  S
C681        C682   1.403       .  A
C681        C686   1.405       .  A
C681        H691   1.083       .  S
C682        C687   1.486       .  S
C682        C683   1.410       .  A
C683        C684   1.401       .  A
C683        S688   1.804       .  S
C684        C685   1.410       .  A
C684        H689   1.084       .  S
C685        C686   1.420       .  A
C686        S690   1.800       .  S
C687        C692   1.407   1_545  A
C687        C696   1.402       .  A
S688        H704   1.405       .  S
S690        H701   1.405       .  S
C692        C693   1.402       .  A
C692        S697   1.808       .  S
C693        C694   1.411       .  A
C693        H698   1.082       .  S
C694        C695   1.422   1_565  A
C695        C696   1.406       .  A
C695        S699   1.800       .  S
C696        H700   1.084       .  S
S697        H702   1.406       .  S
S699        H703   1.408       .  S
C705        C706   1.402       .  A
C705        C710   1.406   1_554  A
C705        H715   1.083       .  S
C706        C711   1.484       .  S
C706        C707   1.411       .  A
C707        C708   1.400       .  A
C707        S712   1.804       .  S
C708        C709   1.406   1_554  A
C708        H713   1.084       .  S
C709        C710   1.416       .  A
C710        S714   1.808       .  S
C711        C716   1.405       .  A
C711        C720   1.401   1_565  A
S712        H728   1.405       .  S
S714        H725   1.407       .  S
C716        C717   1.405       .  A
C716        S721   1.806       .  S
C717        C718   1.412   1_565  A
C717        H722   1.081       .  S
C718        C719   1.421       .  A
C719        C720   1.405       .  A
C719        S723   1.809       .  S
C720        H724   1.081       .  S
S721        H726   1.407       .  S
S723        H727   1.406       .  S
C729        C730   1.396       .  A
C729        C734   1.394       .  A
C729        H739   1.085   1_455  S
C730        C735   1.484   1_465  S
C730        C731   1.416   1_565  A
C731        C732   1.407   1_545  A
C731        S736   1.803       .  S
C732        C733   1.406       .  A
C732        H737   1.084   1_565  S
C733        C734   1.423       .  A
C734        S738   1.805       .  S
C735        C740   1.412       .  A
C735        C744   1.400   1_556  A
S736        H752   1.406   1_455  S
S738        H749   1.407       .  S
C740        C741   1.406       .  A
C740        S745   1.806   1_545  S
C741        C742   1.405   1_556  A
C741        H746   1.083       .  S
C742        C743   1.417       .  A
C743        C744   1.398       .  A
C743        S747   1.803       .  S
C744        H748   1.085   1_655  S
S745        H750   1.407       .  S
S747        H751   1.404       .  S
