geometry optimzed in LAMMPS
_audit_creation_date              2020-11-30 
_audit_creation_method            'lammps2cif' 
_symmetry_space_group_name_H-M    'P1' 
_symmetry_Int_Tables_number       1 
_symmetry_cell_setting            triclinic 
loop_ 
_symmetry_equiv_pos_as_xyz 
  x,y,z 
_cell_length_a                    35.47021448495368 
_cell_length_b                    35.39289690869742 
_cell_length_c                    44.78317192912772 
_cell_angle_alpha                 90.44905475106337 
_cell_angle_beta                  90.09366883855817 
_cell_angle_gamma                 120.19083644534287 
loop_ 
_atom_site_label 
_atom_site_type_symbol 
_atom_site_fract_x 
_atom_site_fract_y 
_atom_site_fract_z 
_atom_site_charge 
C1          C  0.67487196  0.65237322  0.24854003     0.01740
C2          C  0.64743830  0.66947373  0.24683426     0.01740
C3          C  0.97669708  0.66076068  0.25440859     0.01740
C4          C  0.02138353  0.68127890  0.25215483     0.01740
C5          C  0.97041677  0.31338391  0.24711319     0.01740
C6          C  0.01548864  0.33719636  0.24845067     0.01740
C7          C  0.77530651  0.21855057  0.36480145     0.04310
C8          C  0.81770854  0.23995045  0.35294373    -0.11840
C9          C  0.83152615  0.21796893  0.33322508     0.01810
C10         C  0.80048338  0.17448319  0.32525130    -0.10370
C11         C  0.75737469  0.15386992  0.33544474     0.04300
C12         C  0.74516901  0.17571697  0.35583963    -0.09790
H13         H  0.83853736  0.27410245  0.35836098     0.09890
H14         H  0.80835687  0.15638270  0.30951619     0.07420
H15         H  0.71219799  0.15975119  0.36439469     0.07270
C16         C  0.77210542  0.22006641  0.13414289     0.04310
C17         C  0.74562724  0.18350027  0.15189854    -0.11840
C18         C  0.76427896  0.16789105  0.17275898     0.01810
C19         C  0.81012383  0.19283892  0.17685046    -0.10370
C20         C  0.83694734  0.23169667  0.16116508     0.04300
C21         C  0.81756518  0.24367866  0.13871037    -0.09790
H22         H  0.71075966  0.16842781  0.14949406     0.09890
H23         H  0.82546640  0.18260540  0.19321123     0.07420
H24         H  0.83752417  0.27166218  0.12489764     0.07270
C25         C  0.65650815  0.97156887  0.24871711     0.01740
C26         C  0.67904747  0.01669053  0.25110500     0.01740
C27         C  0.22093659  0.44630560  0.36103012     0.04310
C28         C  0.17875092  0.42992280  0.34909337    -0.11840
C29         C  0.16330756  0.39805436  0.32611639     0.01810
C30         C  0.19061167  0.38307510  0.31524881    -0.10370
C31         C  0.23268815  0.39939297  0.32704443     0.04300
C32         C  0.24745189  0.43058022  0.35008914    -0.09790
H33         H  0.15818265  0.44207364  0.35751094     0.09890
H34         H  0.17967346  0.35979370  0.29683552     0.07420
H35         H  0.28007382  0.44338472  0.35909193     0.07270
C36         C  0.21605345  0.43844077  0.13228776     0.04310
C37         C  0.17273535  0.41914355  0.14269689    -0.11840
C38         C  0.15982294  0.39348684  0.16845356     0.01810
C39         C  0.18914082  0.38379294  0.18252411    -0.10370
C40         C  0.23083010  0.39790280  0.17082649     0.04300
C41         C  0.24444348  0.42668665  0.14644470    -0.09790
H42         H  0.14886011  0.42419393  0.13115495     0.09890
H43         H  0.17901977  0.36453800  0.20272256     0.07420
H44         H  0.27718043  0.43982535  0.13834507     0.07270
C45         C  0.32409826  0.34500905  0.25038655     0.01740
C46         C  0.34712460  0.32308678  0.24951285     0.01740
C47         C  0.43324637  0.21968800  0.36727502     0.04310
C48         C  0.41479815  0.24462500  0.35726088    -0.11840
C49         C  0.37479935  0.22478005  0.34148019     0.01810
C50         C  0.35405893  0.17919576  0.33693234    -0.10370
C51         C  0.37717798  0.15673307  0.33963768     0.04300
C52         C  0.41564351  0.17639848  0.35671012    -0.09790
H53         H  0.43277458  0.27949256  0.36116990     0.09890
H54         H  0.32202000  0.16167443  0.32711116     0.07420
H55         H  0.43263312  0.15891338  0.36114333     0.07270
C56         C  0.78031398  0.56382338  0.37107242     0.04310
C57         C  0.75411061  0.57944374  0.35868845    -0.11840
C58         C  0.76920171  0.60942267  0.33492071     0.01810
C59         C  0.81151116  0.62439203  0.32419052    -0.10370
C60         C  0.83824057  0.60997186  0.33657524     0.04300
C61         C  0.82303958  0.58064094  0.36036076    -0.09790
H62         H  0.72123661  0.56689802  0.36673989     0.09890
H63         H  0.82322679  0.64602786  0.30521576     0.07420
H64         H  0.84405991  0.56969850  0.36970269     0.07270
Fe65       Fe  0.72897892  0.36341712  0.99852971     1.65780
Fe66       Fe  0.63222753  0.36312905  0.99908748     1.73250
Fe67       Fe  0.63206516  0.26624023  0.49619709     1.54420
O68         O  0.67314146  0.26386922  0.46406217    -0.80500
O69         O  0.59065958  0.32469474  0.03198464    -0.78800
O70         O  0.73337980  0.32968619  0.46246128    -0.83000
O71         O  0.73366728  0.32136176  0.02811709    -0.77860
O72         O  0.59098119  0.26296016  0.46221147    -0.79630
O73         O  0.67188189  0.40549805  0.03247364    -0.82380
C74         C  0.70771096  0.28432528  0.03914881     0.98390
C75         C  0.71020592  0.29065242  0.45323337     1.05830
O76         O  0.66436364  0.33088908  0.49781472    -1.11360
O77         O  0.66933846  0.40620619  0.46626667    -0.73790
O78         O  0.73416878  0.41092385  0.46934542    -0.77280
O79         O  0.66846575  0.26118062  0.03037034    -0.77970
C80         C  0.70886139  0.42304968  0.45856280     0.97290
O81         O  0.73202251  0.40035592  0.03486189    -0.75930
O82         O  0.58826381  0.32433336  0.46625093    -0.81120
C83         C  0.57509427  0.28536585  0.03986254     0.99910
C84         C  0.57558457  0.28698392  0.45450431     1.05830
O85         O  0.58692669  0.26017564  0.02812824    -0.76760
C86         C  0.70824034  0.41503623  0.04427293     1.04130
C87         C  0.76987599  0.54194727  0.13996594     0.04310
C88         C  0.74504132  0.56195708  0.14540419    -0.11840
C89         C  0.76043301  0.59727887  0.16529710     0.01810
C90         C  0.80338688  0.61578645  0.17570413    -0.10370
C91         C  0.82667013  0.59335604  0.17388573     0.04300
C92         C  0.80886578  0.55537439  0.15588434    -0.09790
H93         H  0.71382363  0.54978314  0.13431234     0.09890
H94         H  0.81749345  0.64638300  0.18778544     0.07420
H95         H  0.82470264  0.53624504  0.15377809     0.07270
C96         C  0.44542214  0.21988191  0.13405553     0.04310
C97         C  0.42805573  0.24629221  0.14306607    -0.11840
C98         C  0.39943691  0.23450562  0.16742419     0.01810
C99         C  0.38712019  0.19446454  0.18173866    -0.10370
C100        C  0.40289250  0.16703639  0.17213711     0.04300
C101        C  0.43255194  0.18028592  0.14857633    -0.09790
H102        H  0.43726872  0.27614799  0.13113255     0.09890
H103        H  0.36510668  0.18443753  0.20054003     0.07420
H104        H  0.44567723  0.15984374  0.14159056     0.07270
C105        C  0.22108199  0.78239850  0.37027485     0.04310
C106        C  0.17805406  0.75806276  0.35887021    -0.11840
C107        C  0.16091483  0.77769134  0.34012510     0.01810
C108        C  0.18522741  0.82323081  0.33706014    -0.10370
C109        C  0.22993898  0.84583067  0.34308345     0.04300
C110        C  0.24753514  0.82546875  0.36020150    -0.09790
H111        H  0.15874945  0.72394866  0.36391709     0.09890
H112        H  0.17123796  0.83970414  0.32501805     0.07420
H113        H  0.28220667  0.84292159  0.36496206     0.07270
C114        C  0.21966916  0.76838368  0.13640960     0.04310
C115        C  0.17946650  0.73812945  0.14897319    -0.11840
C116        C  0.16294641  0.75051984  0.17303413     0.01810
C117        C  0.18787128  0.79233822  0.18553680    -0.10370
C118        C  0.22677134  0.82445982  0.17217985     0.04300
C119        C  0.24197915  0.81197706  0.14697172    -0.09790
H120        H  0.16116375  0.70516809  0.14002254     0.09890
H121        H  0.17585047  0.79997409  0.20556410     0.07420
H122        H  0.27098441  0.83562215  0.13545209     0.07270
Fe123      Fe  0.26942660  0.63172175  0.49832093     1.65780
Fe124      Fe  0.36474662  0.72871612  0.99914464     1.73250
Fe125      Fe  0.36590635  0.63289855  0.00084007     1.54420
O126        O  0.33047487  0.59506105  0.03638511    -0.80500
O127        O  0.41216779  0.73327628  0.46999865    -0.78800
O128        O  0.26401435  0.58305837  0.02639559    -0.83000
O129        O  0.26863116  0.59633779  0.46134634    -0.77860
O130        O  0.41138293  0.67647306  0.03145995    -0.79630
O131        O  0.33082414  0.73012083  0.46242848    -0.82380
C132        C  0.29023273  0.57745646  0.45562013     0.98390
C133        C  0.28973662  0.57486190  0.04098352     1.05830
O134        O  0.33349782  0.66449287  0.99951551    -1.11360
O135        O  0.32110501  0.73278474  0.02822787    -0.73790
O136        O  0.26569663  0.66498299  0.03531631    -0.77280
O137        O  0.32429964  0.58517817  0.47020353    -0.77970
C138        C  0.28659538  0.70553355  0.04175385     0.97290
O139        O  0.26390175  0.67466824  0.46988216    -0.75930
O140        O  0.40276529  0.73446067  0.03563844    -0.81120
C141        C  0.42265999  0.70720435  0.45803201     0.99910
C142        C  0.42085222  0.71296329  0.04344854     1.05830
O143        O  0.40535322  0.66744161  0.46558792    -0.76760
C144        C  0.29042708  0.70939384  0.45644625     1.04130
C145        C  0.55302670  0.77630160  0.36389866     0.04310
C146        C  0.57704949  0.75605203  0.35556564    -0.11840
C147        C  0.60163130  0.76760252  0.32896143     0.01810
C148        C  0.60515489  0.80371112  0.31313781    -0.10370
C149        C  0.58395603  0.82614623  0.32236892     0.04300
C150        C  0.55706649  0.81163540  0.34740244    -0.09790
H151        H  0.57579359  0.73120869  0.36998632     0.09890
H152        H  0.62477359  0.81514838  0.29336821     0.07420
H153        H  0.53920261  0.82773060  0.35397925     0.07270
C154        C  0.55537882  0.77737237  0.13556586     0.04310
C155        C  0.56448928  0.74550808  0.14600286    -0.11840
C156        C  0.60024606  0.75743931  0.16475064     0.01810
C157        C  0.62803585  0.80129361  0.17165194    -0.10370
C158        C  0.61416633  0.83161578  0.16735892     0.04300
C159        C  0.57843962  0.82002570  0.14794157    -0.09790
H160        H  0.54408254  0.71160434  0.13929492     0.09890
H161        H  0.65727396  0.81038258  0.18461403     0.07420
H162        H  0.56835521  0.84344888  0.14276290     0.07270
C163        C  0.33110529  0.01967145  0.24975038     0.01740
C164        C  0.30661430  0.97474157  0.25063719     0.01740
C165        C  0.45678048  0.72426993  0.43432743    -0.04160
C166        C  0.45174212  0.69922983  0.40822030    -0.01280
C167        C  0.48295481  0.71658126  0.38522069     0.03710
C168        C  0.52065922  0.75821157  0.38856804    -0.04160
C169        C  0.52612719  0.78303005  0.41471338    -0.01270
C170        C  0.49438969  0.76628768  0.43742867     0.03710
C171        C  0.41400009  0.65588081  0.40443340     0.38360
C172        C  0.56450445  0.82593382  0.41836310     0.38350
C173        C  0.50133977  0.79203865  0.46442361     0.36770
C174        C  0.47484602  0.69263167  0.35724117     0.36770
N175        N  0.50679516  0.81255990  0.48593149    -0.38050
N176        N  0.46806648  0.67378548  0.33480549    -0.38050
N177        N  0.59488611  0.86026859  0.42156118    -0.37490
N178        N  0.38437043  0.62102660  0.40131770    -0.37500
C179        C  0.52216012  0.76492339  0.11135556    -0.04160
C180        C  0.48361156  0.76654376  0.11583616    -0.01280
C181        C  0.45090354  0.75081662  0.09340560     0.03710
C182        C  0.45584870  0.73189306  0.06674105    -0.04160
C183        C  0.49521486  0.73181017  0.06194030    -0.01270
C184        C  0.52821857  0.74853456  0.08395771     0.03710
C185        C  0.47681353  0.78280862  0.14396237     0.38360
C186        C  0.50264738  0.71591128  0.03381712     0.38350
C187        C  0.56886022  0.74921193  0.07822178     0.36770
C188        C  0.41204567  0.75375547  0.09814495     0.36770
N189        N  0.60120149  0.74964991  0.07373756    -0.38050
N190        N  0.38155442  0.75699679  0.10203066    -0.38050
N191        N  0.50853499  0.70324926  0.01140279    -0.37490
N192        N  0.47146153  0.79579111  0.16641954    -0.37500
C193        C  0.28890811  0.94584698  0.22323529    -0.04160
C194        C  0.31527425  0.93562036  0.20516160    -0.01280
C195        C  0.29608735  0.89561363  0.18882493     0.03710
C196        C  0.24997618  0.87028328  0.18530220    -0.04160
C197        C  0.22493768  0.88780509  0.19715536    -0.01270
C198        C  0.24320737  0.92166542  0.21860276     0.03710
C199        C  0.36199520  0.96500523  0.20408252     0.38360
C200        C  0.18034477  0.87155928  0.18720538     0.38350
C201        C  0.21427224  0.93212267  0.23492578     0.36770
C202        C  0.32410299  0.87971972  0.17801206     0.36770
N203        N  0.18961315  0.93938753  0.24678358    -0.38050
N204        N  0.34679850  0.86722266  0.16966547    -0.38050
N205        N  0.14489727  0.85926919  0.17939838    -0.37490
N206        N  0.39934184  0.98813021  0.20267035    -0.37500
C207        C  0.27001233  0.72203763  0.06603253    -0.04160
C208        C  0.26894950  0.70852312  0.09575286    -0.01280
C209        C  0.25318684  0.72428622  0.11877261     0.03710
C210        C  0.23842776  0.75376098  0.11228875    -0.04160
C211        C  0.24028604  0.76792671  0.08270483    -0.01270
C212        C  0.25554817  0.75175478  0.05962150     0.03710
C213        C  0.28532905  0.67942711  0.10286124     0.38360
C214        C  0.22561855  0.79849850  0.07591173     0.38350
C215        C  0.25403575  0.76399625  0.02905081     0.36770
C216        C  0.25331806  0.71107473  0.14933246     0.36770
N217        N  0.25178260  0.77363986  0.00478357    -0.38050
N218        N  0.25374714  0.70060051  0.17368163    -0.38050
N219        N  0.21412683  0.82306665  0.07055478    -0.37490
N220        N  0.29874525  0.65656417  0.10869668    -0.37500
C221        C  0.25820180  0.88578620  0.32536925    -0.04160
C222        C  0.24918707  0.92031200  0.32430096    -0.01280
C223        C  0.26548591  0.95075785  0.30075509     0.03710
C224        C  0.29450044  0.94932419  0.27947628    -0.04160
C225        C  0.30883059  0.91885869  0.28394324    -0.01270
C226        C  0.28896004  0.88583630  0.30535266     0.03710
C227        C  0.22159210  0.92337193  0.34696240     0.38360
C228        C  0.34545182  0.92182793  0.26757018     0.38350
C229        C  0.29798333  0.85005336  0.30480133     0.36770
C230        C  0.25029433  0.98169072  0.29840340     0.36770
N231        N  0.30519245  0.82159065  0.30407421    -0.38050
N232        N  0.23704508  0.00560639  0.29753137    -0.38050
N233        N  0.37526586  0.92306382  0.25610542    -0.37490
N234        N  0.19959781  0.92569642  0.36507900    -0.37500
C235        C  0.27347600  0.72763865  0.43371736    -0.04160
C236        C  0.24338323  0.70067003  0.41149988    -0.01280
C237        C  0.23009568  0.71924047  0.38896364     0.03710
C238        C  0.23943130  0.76315053  0.39178363    -0.04160
C239        C  0.26655212  0.78896449  0.41588432    -0.01270
C240        C  0.28661872  0.77251184  0.43473156     0.03710
C241        C  0.22532592  0.65369813  0.41180808     0.38360
C242        C  0.27249468  0.83184899  0.42265107     0.38350
C243        C  0.31971038  0.80187252  0.45591970     0.36770
C244        C  0.20895427  0.69335041  0.36239726     0.36770
N245        N  0.34633282  0.82539107  0.47259782    -0.38050
N246        N  0.19221588  0.67253342  0.34124159    -0.38050
N247        N  0.27733448  0.86601674  0.42818698    -0.37490
N248        N  0.20960635  0.61605888  0.41228388    -0.37500
C249        C  0.38743489  0.12382830  0.18663359    -0.04160
C250        C  0.41406827  0.11778925  0.20705937    -0.01280
C251        C  0.39688043  0.07882159  0.22368863     0.03710
C252        C  0.35188767  0.04646951  0.22170160    -0.04160
C253        C  0.32722160  0.05029937  0.19791721    -0.01270
C254        C  0.34526882  0.08876021  0.18051990     0.03710
C255        C  0.45854533  0.15274246  0.21217567     0.38360
C256        C  0.28215935  0.01794508  0.19217446     0.38350
C257        C  0.31979797  0.09312073  0.15676730     0.36770
C258        C  0.42539008  0.07305785  0.24404691     0.36770
N259        N  0.29965850  0.09654586  0.13772231    -0.38050
N260        N  0.44882426  0.06887349  0.25987852    -0.38050
N261        N  0.24615329  0.99475787  0.18536028    -0.37490
N262        N  0.49397836  0.18073884  0.21628606    -0.37500
C263        C  0.54156458  0.26819155  0.06381652    -0.04160
C264        C  0.54794656  0.29265492  0.09038656    -0.01280
C265        C  0.51879301  0.27427997  0.11427400     0.03710
C266        C  0.47889090  0.23505625  0.11014458    -0.04160
C267        C  0.47086379  0.21154593  0.08298809    -0.01270
C268        C  0.50273524  0.22731592  0.06028810     0.03710
C269        C  0.58246505  0.33784630  0.09281207     0.38360
C270        C  0.42962961  0.17149195  0.07823369     0.38350
C271        C  0.49411667  0.20293429  0.03248079     0.36770
C272        C  0.53164551  0.29391367  0.14379922     0.36770
N273        N  0.48730652  0.18366413  0.51022629    -0.38050
N274        N  0.54282720  0.30869424  0.16750371    -0.38050
N275        N  0.39670573  0.13953390  0.07447922    -0.37490
N276        N  0.60822018  0.37462286  0.09463984    -0.37500
C277        C  0.72508312  0.44678541  0.06915758    -0.04160
C278        C  0.74951650  0.49172190  0.06271670    -0.01280
C279        C  0.76441852  0.52269664  0.08605840     0.03710
C280        C  0.75601975  0.50878870  0.11596250    -0.04160
C281        C  0.73353297  0.46385902  0.12256091    -0.01270
C282        C  0.71814894  0.43274903  0.09912074     0.03710
C283        C  0.76084008  0.50610292  0.03212007     0.38360
C284        C  0.72579921  0.44984855  0.15339846     0.38350
C285        C  0.69580870  0.38651100  0.10589068     0.36770
C286        C  0.78849571  0.56902425  0.07934197     0.36770
N287        N  0.67811584  0.34966878  0.11151248    -0.38050
N288        N  0.80758568  0.60596734  0.07405100    -0.38050
N289        N  0.71974066  0.43881641  0.17803832    -0.37490
N290        N  0.77083961  0.51789513  0.50787597    -0.37500
C291        C  0.76206549  0.52776680  0.39374492    -0.04160
C292        C  0.73945570  0.53006502  0.41914942    -0.01280
C293        C  0.71996791  0.49483579  0.43932004     0.03710
C294        C  0.72642340  0.45867757  0.43610041    -0.04160
C295        C  0.75062806  0.45718552  0.41164266    -0.01270
C296        C  0.76656799  0.49030845  0.38996463     0.03710
C297        C  0.73793262  0.56952025  0.42556446     0.38360
C298        C  0.75898510  0.42118960  0.40837898     0.38350
C299        C  0.78659469  0.48431257  0.36355660     0.36770
C300        C  0.69439425  0.49664464  0.46398247     0.36770
N301        N  0.80251888  0.47772055  0.34318699    -0.38050
N302        N  0.67388632  0.49800442  0.48359812    -0.38050
N303        N  0.76670906  0.39324404  0.40573585    -0.37490
N304        N  0.73684790  0.60102078  0.43084505    -0.37500
C305        C  0.47112874  0.23902310  0.38862597    -0.04160
C306        C  0.50875430  0.23584372  0.38315010    -0.01280
C307        C  0.54143568  0.24874849  0.40533339     0.03710
C308        C  0.53982240  0.27019722  0.43170197    -0.04160
C309        C  0.50272567  0.27442014  0.43686995    -0.01270
C310        C  0.46812004  0.25776451  0.41595070     0.03710
C311        C  0.51455731  0.22012894  0.35445402     0.38360
C312        C  0.49840676  0.29292219  0.46485757     0.38350
C313        C  0.42836442  0.25785010  0.42351245     0.36770
C314        C  0.57512146  0.23743434  0.40147007     0.36770
N315        N  0.39665709  0.25775246  0.42972228    -0.38050
N316        N  0.60056081  0.22639817  0.39853502    -0.38050
N317        N  0.49494564  0.30756343  0.48718666    -0.37490
N318        N  0.51921884  0.20762561  0.33157670    -0.37500
C319        C  0.36435589  0.11780366  0.31937920    -0.04160
C320        C  0.34916542  0.11896031  0.29056560    -0.01280
C321        C  0.32712474  0.08119389  0.27358006     0.03710
C322        C  0.33767983  0.04810323  0.27698366    -0.04160
C323        C  0.35966215  0.04874206  0.30393917    -0.01270
C324        C  0.36793363  0.08074551  0.32652129     0.03710
C325        C  0.36887136  0.15901272  0.27403257     0.38360
C326        C  0.37666373  0.01965463  0.30826581     0.38350
C327        C  0.38111837  0.07581153  0.35616096     0.36770
C328        C  0.29537304  0.07858014  0.25199753     0.36770
N329        N  0.39150621  0.07161226  0.37985109    -0.38050
N330        N  0.26943015  0.07741361  0.23570964    -0.38050
N331        N  0.39170542  0.99780370  0.31267585    -0.37490
N332        N  0.38613954  0.18920319  0.25891781    -0.37500
C333        C  0.36093485  0.25144194  0.32294416    -0.04160
C334        C  0.37195909  0.29538011  0.32968756    -0.01280
C335        C  0.36991414  0.32235799  0.30659831     0.03710
C336        C  0.36017213  0.30585396  0.27661426    -0.04160
C337        C  0.36358089  0.26868212  0.27143889    -0.01270
C338        C  0.34776253  0.23740093  0.29334508     0.03710
C339        C  0.38217019  0.31175845  0.36008096     0.38360
C340        C  0.40510177  0.27762355  0.25961160     0.38350
C341        C  0.30688939  0.19820155  0.28679441     0.36770
C342        C  0.38595250  0.36796347  0.31311558     0.36770
N343        N  0.27405200  0.16685033  0.28145593    -0.38050
N344        N  0.40020837  0.40439906  0.31951018    -0.38050
N345        N  0.43878009  0.28506432  0.25075085    -0.37490
N346        N  0.39031299  0.32510925  0.38432639    -0.37500
C347        C  0.35552673  0.30800267  0.21968682    -0.04160
C348        C  0.39854444  0.32935480  0.20840418    -0.01280
C349        C  0.41186743  0.30786147  0.18773309     0.03710
C350        C  0.38294687  0.26374015  0.17919725    -0.04160
C351        C  0.33855557  0.24518927  0.18685671    -0.01270
C352        C  0.32527302  0.26601028  0.20796372     0.03710
C353        C  0.43160778  0.36933971  0.22282434     0.38360
C354        C  0.30654399  0.20329688  0.17400139     0.38350
C355        C  0.28295809  0.23978560  0.22145207     0.36770
C356        C  0.45635781  0.33099688  0.17720428     0.36770
N357        N  0.24946841  0.21587867  0.23175907    -0.38050
N358        N  0.49181691  0.35133012  0.16879489    -0.38050
N359        N  0.28086692  0.16998250  0.16378998    -0.37490
N360        N  0.45829646  0.40046996  0.23484293    -0.37500
C361        C  0.30432732  0.35268060  0.22263041    -0.04160
C362        C  0.25903720  0.32613836  0.21672056    -0.01280
C363        C  0.23899060  0.33789945  0.19450614     0.03710
C364        C  0.25882966  0.38156705  0.18470759    -0.04160
C365        C  0.30406118  0.40867053  0.19055670    -0.01270
C366        C  0.32725172  0.39181190  0.20606918     0.03710
C367        C  0.23051715  0.28915271  0.23495144     0.38360
C368        C  0.32679273  0.45454867  0.18281992     0.38350
C369        C  0.37428541  0.41558656  0.20463727     0.36770
C370        C  0.19829189  0.30420047  0.18158662     0.36770
N371        N  0.41168801  0.43642940  0.20180762    -0.38050
N372        N  0.16669435  0.27575964  0.17137881    -0.38050
N373        N  0.34524273  0.49130699  0.17694218    -0.37490
N374        N  0.20472163  0.26005463  0.24868079    -0.37500
C375        C  0.27089208  0.54004836  0.06413115    -0.04160
C376        C  0.23742135  0.53646032  0.08300104    -0.01280
C377        C  0.22023051  0.50444055  0.10547535     0.04370
C378        C  0.23248009  0.47182327  0.10741639    -0.04160
C379        C  0.26270293  0.47302553  0.08605086    -0.01270
C380        C  0.28442070  0.50882094  0.06655379     0.03710
C381        C  0.22070139  0.56628084  0.07988664     0.38360
C382        C  0.26955415  0.43613636  0.08231935     0.38350
C383        C  0.32035725  0.51280206  0.04872771     0.36770
C384        C  0.18998120  0.50654174  0.12612934     0.36770
N385        N  0.34935438  0.51614802  0.03483207    -0.38050
N386        N  0.16526118  0.50993847  0.14104569    -0.38050
N387        N  0.27502137  0.40675374  0.07915890    -0.37490
N388        N  0.20640761  0.58916859  0.07744337    -0.37500
C389        C  0.31164578  0.35971800  0.27839987    -0.04160
C390        C  0.32520234  0.40462881  0.28164836    -0.01280
C391        C  0.29982481  0.41777903  0.29788541     0.03710
C392        C  0.26266226  0.38654988  0.31326562    -0.04160
C393        C  0.25362765  0.34299218  0.31456037    -0.01270
C394        C  0.27805620  0.32949080  0.29720892     0.03710
C395        C  0.36665009  0.43791124  0.26989450     0.38360
C396        C  0.21866520  0.31196443  0.33339838     0.38350
C397        C  0.26757854  0.28441165  0.29855749     0.36770
C398        C  0.31075272  0.46320651  0.29729629     0.36770
N399        N  0.25820087  0.24814120  0.30037036    -0.38050
N400        N  0.31940613  0.49938227  0.29674182    -0.38050
N401        N  0.19094481  0.28726539  0.34855747    -0.37490
N402        N  0.40027858  0.46573130  0.26211136    -0.37500
C403        C  0.23813749  0.48000003  0.38521974    -0.04160
C404        C  0.24419685  0.46855713  0.41422529    -0.01280
C405        C  0.26190120  0.50051209  0.43711092     0.03710
C406        C  0.27429233  0.54437334  0.43112240    -0.04160
C407        C  0.27009323  0.55620465  0.40178491    -0.01270
C408        C  0.25190956  0.52412165  0.37894859     0.03710
C409        C  0.23245528  0.42377267  0.42047276     0.38360
C410        C  0.28714198  0.60186482  0.39463632     0.38350
C411        C  0.24989771  0.53720660  0.34869361     0.36770
C412        C  0.26632973  0.48773122  0.46695833     0.36770
N413        N  0.24939255  0.54878909  0.32469502    -0.38050
N414        N  0.26938240  0.47663216  0.49060410    -0.38050
N415        N  0.30140471  0.63831505  0.38872728    -0.37490
N416        N  0.22344428  0.38813372  0.42531441    -0.37500
C417        C  0.63404436  0.87207307  0.18666839    -0.04160
C418        C  0.64857543  0.91401309  0.17484293    -0.01280
C419        C  0.66803319  0.95146358  0.19385866     0.03710
C420        C  0.66776335  0.94636912  0.22539062    -0.04160
C421        C  0.66455702  0.90697846  0.23500678    -0.01270
C422        C  0.64287485  0.86912058  0.21720872     0.03710
C423        C  0.64692193  0.91927401  0.14285034     0.38360
C424        C  0.68089730  0.90445033  0.26404899     0.38350
C425        C  0.62630405  0.82685270  0.23122915     0.36770
C426        C  0.70247862  0.99063967  0.18046617     0.36770
N427        N  0.61245994  0.79224672  0.24103504    -0.38050
N428        N  0.73062221  0.02057876  0.16875168    -0.38050
N429        N  0.69383051  0.90114444  0.28700187    -0.37490
N430        N  0.64554428  0.92346894  0.11733781    -0.37500
C431        C  0.59158666  0.86607539  0.30620709    -0.04160
C432        C  0.61913506  0.90773804  0.31874885    -0.01280
C433        C  0.62849633  0.94545206  0.30271696     0.03710
C434        C  0.62087359  0.94231660  0.27142489    -0.04160
C435        C  0.58575615  0.90163866  0.26112095    -0.01270
C436        C  0.57165351  0.86334327  0.27831372     0.03710
C437        C  0.63816016  0.91243074  0.34816417     0.38360
C438        C  0.56699808  0.89861544  0.23182836     0.38350
C439        C  0.53874834  0.82116006  0.26664018     0.36770
C440        C  0.62445331  0.97791622  0.31996304     0.36770
N441        N  0.51254403  0.78745914  0.25725838    -0.38050
N442        N  0.62028831  0.00274661  0.33450905    -0.38050
N443        N  0.55172580  0.89566351  0.20845919    -0.37490
N444        N  0.65407522  0.91654863  0.37142944    -0.37500
C445        C  0.75246714  0.23477167  0.11077335    -0.04160
C446        C  0.75732546  0.27675408  0.11286158    -0.01280
C447        C  0.74640716  0.29427219  0.08842323     0.03710
C448        C  0.72380485  0.26744630  0.06351009    -0.04160
C449        C  0.71607107  0.22411101  0.06231994    -0.01270
C450        C  0.73195107  0.20852192  0.08528381     0.03710
C451        C  0.77093544  0.30087189  0.14088589     0.38360
C452        C  0.69419682  0.19639236  0.03659349     0.38350
C453        C  0.72850064  0.16607824  0.08215986     0.36770
C454        C  0.76051980  0.34045326  0.08867965     0.36770
N455        N  0.72601769  0.13234747  0.07950462    -0.38050
N456        N  0.77368324  0.37772301  0.08880823    -0.38050
N457        N  0.67681509  0.17437789  0.01602307    -0.37490
N458        N  0.78032667  0.31953721  0.16349097    -0.37500
C459        C  0.70091981  0.04817759  0.22579089    -0.04160
C460        C  0.67663637  0.05293339  0.20225380    -0.01280
C461        C  0.69730934  0.08949954  0.18272269     0.03710
C462        C  0.73793845  0.12681140  0.19129351    -0.04160
C463        C  0.75629618  0.12343232  0.21831776    -0.01270
C464        C  0.74392298  0.08270090  0.23018199     0.03710
C465        C  0.63146598  0.01975972  0.19728145     0.38360
C466        C  0.77487722  0.15984976  0.23895893     0.38350
C467        C  0.77585482  0.07773770  0.24707631     0.36770
C468        C  0.67631692  0.08737888  0.15455417     0.36770
N469        N  0.80272980  0.07459163  0.25953864    -0.38050
N470        N  0.65882677  0.08475000  0.13213819    -0.38050
N471        N  0.78637627  0.18750170  0.25657278    -0.37490
N472        N  0.59532563  0.99359513  0.19311721    -0.37500
C473        C  0.68577099  0.04072988  0.28026264    -0.04160
C474        C  0.71622703  0.04228980  0.30158666    -0.01280
C475        C  0.73477812  0.07629437  0.32300398     0.03710
C476        C  0.72538421  0.11050965  0.32219560    -0.04160
C477        C  0.69099159  0.10601515  0.30371090    -0.01270
C478        C  0.67052566  0.07058743  0.28337004     0.03710
C479        C  0.73218291  0.01189303  0.30006960     0.38360
C480        C  0.67867459  0.13932268  0.30381896     0.38350
C481        C  0.63463056  0.06559259  0.26495753     0.36770
C482        C  0.76614110  0.07794997  0.34464326     0.36770
N483        N  0.60568569  0.06178237  0.25066740    -0.38050
N484        N  0.79119660  0.07939896  0.36187523    -0.38050
N485        N  0.66833164  0.16554168  0.30369681    -0.37490
N486        N  0.74750531  0.98978401  0.29958171    -0.37500
C487        C  0.76187253  0.24086528  0.38687926    -0.04160
C488        C  0.77270152  0.24168985  0.41727732    -0.01280
C489        C  0.75627400  0.25876315  0.43883472     0.03710
C490        C  0.72876843  0.27488585  0.43009040    -0.04160
C491        C  0.72017939  0.27661136  0.39951266    -0.01270
C492        C  0.73648753  0.25932539  0.37792296     0.03710
C493        C  0.80041639  0.22451545  0.42636511     0.38360
C494        C  0.69577628  0.29730399  0.39019740     0.38350
C495        C  0.72783915  0.26118175  0.34647290     0.36770
C496        C  0.76814244  0.26026947  0.47003307     0.36770
N497        N  0.72119934  0.26306374  0.32137640    -0.38050
N498        N  0.77805272  0.26187107  0.49484468    -0.38050
N499        N  0.67681075  0.31428781  0.38256237    -0.37490
N500        N  0.82265572  0.21093811  0.43353680    -0.37500
C501        C  0.04293699  0.35176955  0.27644069    -0.04160
C502        C  0.07158372  0.39701542  0.28121401    -0.01280
C503        C  0.11112097  0.41207133  0.29671657     0.03710
C504        C  0.11990319  0.38236526  0.31157561    -0.04160
C505        C  0.08764983  0.33746106  0.31132580    -0.01270
C506        C  0.04949824  0.32212747  0.29355964     0.03710
C507        C  0.05829596  0.42829997  0.27355970     0.38360
C508        C  0.09407292  0.30694214  0.32893720     0.38350
C509        C  0.01664119  0.27621498  0.29375072     0.36770
C510        C  0.14381534  0.45797580  0.29504236     0.36770
N511        N  0.99043066  0.23952703  0.29463692    -0.38050
N512        N  0.16927270  0.49466521  0.29264418    -0.38050
N513        N  0.09906269  0.28253684  0.34304981    -0.37490
N514        N  0.04795653  0.45409090  0.26951616    -0.37500
C515        C  0.04292065  0.34757338  0.22045313    -0.04160
C516        C  0.05742198  0.31906674  0.20988898    -0.01280
C517        C  0.08839629  0.33262383  0.18688062     0.03710
C518        C  0.11607000  0.37748387  0.18195317    -0.04160
C519        C  0.10404556  0.40664194  0.19409332    -0.01270
C520        C  0.06345770  0.39012850  0.20821259     0.03710
C521        C  0.04770507  0.27938702  0.22503950     0.38360
C522        C  0.13554016  0.45272575  0.19725400     0.38350
C523        C  0.04346713  0.41691638  0.20814966     0.36770
C524        C  0.09106474  0.30057455  0.16817293     0.36770
N525        N  0.02959222  0.44020818  0.20617258    -0.38050
N526        N  0.09095838  0.27460757  0.15227399    -0.38050
N527        N  0.16076838  0.48915666  0.20175581    -0.37490
N528        N  0.04359064  0.24839340  0.23655782    -0.37500
C529        C  0.88397935  0.26032219  0.17103417    -0.04160
C530        C  0.90048881  0.30459361  0.17962375    -0.01280
C531        C  0.93195777  0.32360131  0.20283359     0.03710
C532        C  0.94915134  0.29948686  0.21643986    -0.04160
C533        C  0.93728102  0.25770285  0.20435520    -0.01270
C534        C  0.90763012  0.24013767  0.18020264     0.03710
C535        C  0.88425153  0.33057916  0.16598168     0.38360
C536        C  0.94727924  0.22830444  0.22013214     0.38350
C537        C  0.89845386  0.19907782  0.16638291     0.36770
C538        C  0.93846474  0.36334828  0.21719487     0.36770
N539        N  0.89109917  0.16635419  0.15537161    -0.38050
N540        N  0.94192681  0.39401197  0.22921957    -0.38050
N541        N  0.95224255  0.20237565  0.23225266    -0.37490
N542        N  0.87326416  0.35290557  0.15489905    -0.37500
C543        C  0.93832802  0.29466855  0.27346179    -0.04160
C544        C  0.94392357  0.30838474  0.30426746    -0.01280
C545        C  0.91116118  0.28202890  0.32566958     0.03710
C546        C  0.87442765  0.24157512  0.31663716    -0.04160
C547        C  0.87585307  0.22741135  0.28765830    -0.01270
C548        C  0.89663288  0.25930139  0.26641339     0.03710
C549        C  0.97657426  0.35159453  0.31401108     0.38360
C550        C  0.87954081  0.18886293  0.28419330     0.38350
C551        C  0.86771544  0.27024160  0.25090436     0.36770
C552        C  0.91754330  0.29455525  0.35697370     0.36770
N553        N  0.84423610  0.27924054  0.23913648    -0.38050
N554        N  0.92281630  0.30447723  0.38198385    -0.38050
N555        N  0.88273250  0.15802429  0.28174795    -0.37490
N556        N  0.00045874  0.38555487  0.32424958    -0.37500
C557        C  0.04571133  0.68452574  0.22366641    -0.04160
C558        C  0.07633469  0.66990557  0.22481252    -0.01280
C559        C  0.11372569  0.68919073  0.20672407     0.03710
C560        C  0.11914699  0.72072841  0.18568211    -0.04160
C561        C  0.08450270  0.72860879  0.18021637    -0.01270
C562        C  0.04794007  0.71107211  0.19933646     0.03710
C563        C  0.07044711  0.63628940  0.24571587     0.38360
C564        C  0.08785528  0.75687216  0.15583796     0.38350
C565        C  0.01582867  0.72450045  0.19544924     0.36770
C566        C  0.14808850  0.67902716  0.21143772     0.36770
N567        N  0.99090186  0.73604911  0.19177959    -0.38050
N568        N  0.17537627  0.67081967  0.21555616    -0.38050
N569        N  0.09050387  0.77917868  0.13623492    -0.37490
N570        N  0.06606588  0.60907094  0.26191007    -0.37500
C571        C  0.12244040  0.75173731  0.31944030    -0.04160
C572        C  0.12321411  0.76754084  0.29024614    -0.01280
C573        C  0.08534865  0.74890441  0.27292917     0.03710
C574        C  0.05206156  0.70536081  0.27796136    -0.04160
C575        C  0.05342994  0.68587437  0.30529676    -0.01270
C576        C  0.08531436  0.71126807  0.32730252     0.03710
C577        C  0.16318978  0.80043858  0.27617057     0.38360
C578        C  0.02422009  0.63990828  0.31085312     0.38350
C579        C  0.07877328  0.69568076  0.35772124     0.36770
C580        C  0.08075124  0.77627364  0.25098184     0.36770
N581        N  0.07311735  0.68308964  0.38200448    -0.38050
N582        N  0.07823176  0.79994480  0.23449876    -0.38050
N583        N  0.00176438  0.60317826  0.31590900    -0.37490
N584        N  0.19479328  0.82651298  0.26472493    -0.37500
C585        C  0.95261113  0.64685408  0.28381096    -0.04160
C586        C  0.95238777  0.67701436  0.30492411    -0.01280
C587        C  0.91657451  0.66346500  0.32445984     0.03710
C588        C  0.87985951  0.62120438  0.32159853    -0.04160
C589        C  0.88127016  0.59083572  0.30182981    -0.01270
C590        C  0.91925043  0.60245003  0.28552460     0.03710
C591        C  0.98563128  0.72282426  0.30473786     0.38360
C592        C  0.84171753  0.55033977  0.29436144     0.38350
C593        C  0.92212939  0.56919166  0.26813951     0.36770
C594        C  0.91562502  0.69407082  0.34574699     0.36770
N595        N  0.92421166  0.54225969  0.25468226    -0.38050
N596        N  0.91466498  0.71834275  0.36276294    -0.38050
N597        N  0.81016069  0.51890175  0.28703496    -0.37490
N598        N  0.01131664  0.75973352  0.30517831    -0.37500
C599        C  0.94531225  0.64938912  0.22829124    -0.04160
C600        C  0.94052991  0.62108487  0.20395887    -0.01280
C601        C  0.90444434  0.60651580  0.18400404     0.03710
C602        C  0.86752087  0.60970700  0.19265013    -0.04160
C603        C  0.87095629  0.63221151  0.21967623    -0.01270
C604        C  0.91183550  0.65951399  0.23214787     0.03710
C605        C  0.97007662  0.60457270  0.19974436     0.38360
C606        C  0.83283397  0.62504291  0.23639779     0.38350
C607        C  0.91849455  0.69768368  0.24880201     0.36770
C608        C  0.90632368  0.58912590  0.15501845     0.36770
N609        N  0.92270219  0.72842293  0.26116809    -0.38050
N610        N  0.90830012  0.57561664  0.13180888    -0.38050
N611        N  0.80209807  0.61901919  0.24932583    -0.37490
N612        N  0.99254689  0.59010891  0.19570528    -0.37500
C613        C  0.64256627  0.69343417  0.27355189    -0.04160
C614        C  0.66453619  0.73967587  0.27374480    -0.01280
C615        C  0.65821292  0.76255706  0.29723550     0.03710
C616        C  0.62103957  0.74130979  0.31561874    -0.04160
C617        C  0.59984217  0.69480182  0.31650064    -0.01270
C618        C  0.61285478  0.67151422  0.29700040     0.03710
C619        C  0.69105510  0.76454605  0.24875424     0.38360
C620        C  0.56403221  0.66964454  0.33664455     0.38350
C621        C  0.59150022  0.62451479  0.29965629     0.36770
C622        C  0.69191799  0.80711095  0.30383160     0.36770
N623        N  0.57184362  0.58716852  0.30330195    -0.38050
N624        N  0.71980920  0.84202329  0.30965151    -0.38050
N625        N  0.53584852  0.64831614  0.35272836    -0.37490
N626        N  0.71132836  0.78556096  0.22886190    -0.37500
C627        C  0.62508054  0.67172611  0.21795515    -0.04160
C628        C  0.58473476  0.67075354  0.22052259    -0.01280
C629        C  0.57562075  0.69762900  0.20239673     0.03710
C630        C  0.60610310  0.72438477  0.18078731    -0.04160
C631        C  0.64273570  0.72022342  0.17525810    -0.01270
C632        C  0.64811143  0.68893934  0.19081538     0.03710
C633        C  0.55159741  0.64090353  0.24082398     0.38360
C634        C  0.67184190  0.74394249  0.15087795     0.38350
C635        C  0.65475218  0.66068406  0.17075715     0.36770
C636        C  0.53667929  0.70034171  0.20771386     0.36770
N637        N  0.65882805  0.63898333  0.15307102    -0.38050
N638        N  0.50580859  0.70275615  0.21209648    -0.38050
N639        N  0.69491032  0.76278673  0.13138384    -0.37490
N640        N  0.52364522  0.61692310  0.25615109    -0.37500
C641        C  0.73161969  0.61231583  0.17895123    -0.04160
C642        C  0.74853353  0.65732199  0.18465218    -0.01280
C643        C  0.73086182  0.67090759  0.20768747     0.03710
C644        C  0.69115814  0.64028117  0.22131568    -0.04160
C645        C  0.66846018  0.59741178  0.20946043    -0.01270
C646        C  0.69025100  0.58222455  0.19096636     0.03710
C647        C  0.78371220  0.68960433  0.16644255     0.38360
C648        C  0.62136873  0.57219516  0.21137692     0.38350
C649        C  0.67036160  0.53555917  0.18586891     0.36770
C650        C  0.75226138  0.71694413  0.21508559     0.36770
N651        N  0.65433675  0.49820340  0.18211449    -0.38050
N652        N  0.77133400  0.75430285  0.21926187    -0.38050
N653        N  0.58361723  0.55275349  0.21162100    -0.37490
N654        N  0.81160134  0.71522912  0.15181440    -0.37500
C655        C  0.73978741  0.62172165  0.31860094    -0.04160
C656        C  0.69925444  0.58909838  0.30695441    -0.01280
C657        C  0.67525007  0.60004498  0.28712147     0.03710
C658        C  0.69165118  0.64385520  0.27760148    -0.04160
C659        C  0.73010816  0.67693689  0.29186306    -0.01270
C660        C  0.75382081  0.66591230  0.31213757     0.03710
C661        C  0.68284289  0.54336825  0.31383994     0.38360
C662        C  0.74640756  0.72269190  0.28611947     0.38350
C663        C  0.79343609  0.70034155  0.32604311     0.36770
C664        C  0.63339481  0.56480918  0.27704094     0.36770
N665        N  0.82516946  0.72774349  0.33696413    -0.38050
N666        N  0.60001866  0.53450731  0.27110825    -0.38050
N667        N  0.76143642  0.75999077  0.28324003    -0.37490
N668        N  0.66931442  0.50692532  0.31944216    -0.37500
C669        C  0.67487182  0.65237312  0.74854082     0.01740
C670        C  0.64743808  0.66947354  0.74683508     0.01740
C671        C  0.97669708  0.66076085  0.75440750     0.01740
C672        C  0.02138353  0.68127889  0.75215374     0.01740
C673        C  0.97041662  0.31338380  0.74711172     0.01740
C674        C  0.01548849  0.33719602  0.74844906     0.01740
C675        C  0.77530777  0.21855172  0.86480131     0.04310
C676        C  0.81770960  0.23995165  0.85294326    -0.11840
C677        C  0.83152704  0.21797003  0.83322455     0.01810
C678        C  0.80048425  0.17448415  0.82525105    -0.10370
C679        C  0.75737574  0.15387083  0.83544485     0.04300
C680        C  0.74517029  0.17571797  0.85583980    -0.09790
H681        H  0.83853836  0.27410372  0.85836030     0.09890
H682        H  0.80835755  0.15638358  0.80951587     0.07420
H683        H  0.71219941  0.15975216  0.86439513     0.07270
C684        C  0.77210396  0.22006532  0.63414269     0.04310
C685        C  0.74562599  0.18349937  0.65189856    -0.11840
C686        C  0.76427797  0.16789044  0.67275901     0.01810
C687        C  0.81012289  0.19283833  0.67685022    -0.10370
C688        C  0.83694621  0.23169582  0.66116452     0.04300
C689        C  0.81756377  0.24367754  0.63870986    -0.09790
H690        H  0.71075836  0.16842684  0.64949426     0.09890
H691        H  0.82546565  0.18260506  0.69321101     0.07420
H692        H  0.83752260  0.27166089  0.62489693     0.07270
C693        C  0.65650865  0.97156906  0.74871813     0.01740
C694        C  0.67904765  0.01669072  0.75110591     0.01740
C695        C  0.22093497  0.44630472  0.86102991     0.04310
C696        C  0.17874960  0.42992196  0.84909259    -0.11840
C697        C  0.16330681  0.39805350  0.82611563     0.01810
C698        C  0.19061119  0.38307427  0.81524856    -0.10370
C699        C  0.23268742  0.39939222  0.82704465     0.04300
C700        C  0.24745057  0.43057941  0.85008939    -0.09790
H701        H  0.15818112  0.44207281  0.85750972     0.09890
H702        H  0.17967342  0.35979292  0.79683525     0.07420
H703        H  0.28007231  0.44338395  0.85909254     0.07270
C704        C  0.21605476  0.43844121  0.63228754     0.04310
C705        C  0.17273647  0.41914395  0.64269629    -0.11840
C706        C  0.15982356  0.39348710  0.66845290     0.01810
C707        C  0.18914122  0.38379323  0.68252382    -0.10370
C708        C  0.23083072  0.39790311  0.67082658     0.04300
C709        C  0.24444451  0.42668699  0.64644478    -0.09790
H710        H  0.14886145  0.42419440  0.63115409     0.09890
H711        H  0.17901982  0.36453827  0.70272226     0.07420
H712        H  0.27718158  0.43982566  0.63834540     0.07270
C713        C  0.32409852  0.34500924  0.75038723     0.01740
C714        C  0.34712481  0.32308692  0.74951339     0.01740
C715        C  0.43324688  0.21968763  0.86727515     0.04310
C716        C  0.41479868  0.24462467  0.85726104    -0.11840
C717        C  0.37479991  0.22477978  0.84148031     0.01810
C718        C  0.35405950  0.17919551  0.83693238    -0.10370
C719        C  0.37717854  0.15673282  0.83963766     0.04300
C720        C  0.41564403  0.17639813  0.85671015    -0.09790
H721        H  0.43277510  0.27949221  0.86117012     0.09890
H722        H  0.32202058  0.16167422  0.82711117     0.07420
H723        H  0.43263361  0.15891298  0.86114334     0.07270
C724        C  0.78031500  0.56382372  0.87107251     0.04310
C725        C  0.75411153  0.57944406  0.85868872    -0.11840
C726        C  0.76920233  0.60942287  0.83492093     0.01810
C727        C  0.81151162  0.62439215  0.82419047    -0.10370
C728        C  0.83824117  0.60997200  0.83657496     0.04300
C729        C  0.82304047  0.58064117  0.86036057    -0.09790
H730        H  0.72123762  0.56689839  0.86674034     0.09890
H731        H  0.82322701  0.64602792  0.80521566     0.07420
H732        H  0.84406091  0.56969877  0.86970235     0.07270
Fe733      Fe  0.72897816  0.36341675  0.49852968     1.65780
Fe734      Fe  0.63222691  0.36312894  0.49908744     1.73250
Fe735      Fe  0.63206605  0.26624045  0.99619720     1.54420
O736        O  0.67314232  0.26386956  0.96406219    -0.80500
O737        O  0.59065899  0.32469474  0.53198462    -0.78800
O738        O  0.73338061  0.32968658  0.96246136    -0.83000
O739        O  0.73366633  0.32136121  0.52811704    -0.77860
O740        O  0.59098187  0.26296019  0.96221165    -0.79630
O741        O  0.67188134  0.40549794  0.53247356    -0.82380
C742        C  0.70770988  0.28432476  0.53914875     0.98390
C743        C  0.71020677  0.29065284  0.95323341     1.05830
O744        O  0.66436439  0.33088930  0.99781478    -1.11360
O745        O  0.66933910  0.40620642  0.96626672    -0.73790
O746        O  0.73416942  0.41092409  0.96934544    -0.77280
O747        O  0.66846465  0.26118025  0.53037028    -0.77970
C748        C  0.70886203  0.42304990  0.95856282     0.97290
O749        O  0.73202182  0.40035557  0.53486190    -0.75930
O750        O  0.58826448  0.32433340  0.96625093    -0.81120
C751        C  0.57509350  0.28536580  0.53986242     0.99910
C752        C  0.57558523  0.28698389  0.95450441     1.05830
O753        O  0.58692574  0.26017550  0.52812805    -0.76760
C754        C  0.70823973  0.41503601  0.54427289     1.04130
C755        C  0.76987503  0.54194717  0.63996585     0.04310
C756        C  0.74504033  0.56195691  0.64540429    -0.11840
C757        C  0.76043222  0.59727880  0.66529714     0.01810
C758        C  0.80338625  0.61578653  0.67570386    -0.10370
C759        C  0.82666954  0.59335618  0.67388531     0.04300
C760        C  0.80886502  0.55537443  0.65588402    -0.09790
H761        H  0.71382251  0.54978286  0.63431262     0.09890
H762        H  0.81749295  0.64638317  0.68778507     0.07420
H763        H  0.82470189  0.53624511  0.65377767     0.07270
C764        C  0.44542143  0.21988199  0.63405540     0.04310
C765        C  0.42805509  0.24629229  0.64306606    -0.11840
C766        C  0.39943644  0.23450570  0.66742429     0.01810
C767        C  0.38711982  0.19446460  0.68173871    -0.10370
C768        C  0.40289205  0.16703645  0.67213700     0.04300
C769        C  0.43255132  0.18028600  0.64857614    -0.09790
H770        H  0.43726802  0.27614808  0.63113258     0.09890
H771        H  0.36510647  0.18443760  0.70054018     0.07420
H772        H  0.44567657  0.15984382  0.64159025     0.07270
C773        C  0.22108076  0.78239856  0.87027462     0.04310
C774        C  0.17805293  0.75806292  0.85886982    -0.11840
C775        C  0.16091396  0.77769156  0.84012454     0.01810
C776        C  0.18522663  0.82323102  0.83705959    -0.10370
C777        C  0.22993815  0.84583080  0.84308313     0.04300
C778        C  0.24753408  0.82546881  0.86020133    -0.09790
H779        H  0.15874821  0.72394883  0.86391669     0.09890
H780        H  0.17123735  0.83970439  0.82501735     0.07420
H781        H  0.28220558  0.84292157  0.86496201     0.07270
C782        C  0.21967005  0.76838364  0.63640927     0.04310
C783        C  0.17946729  0.73812935  0.64897272    -0.11840
C784        C  0.16294694  0.75051968  0.67303355     0.01810
C785        C  0.18787168  0.79233806  0.68553626    -0.10370
C786        C  0.22677185  0.82445971  0.67217945     0.04300
C787        C  0.24197989  0.81197701  0.64697141    -0.09790
H788        H  0.16116465  0.70516800  0.64002203     0.09890
H789        H  0.17585068  0.79997388  0.70556349     0.07420
H790        H  0.27098522  0.83562214  0.63545187     0.07270
Fe791      Fe  0.26942413  0.63172095  0.99832095     1.65780
Fe792      Fe  0.36474894  0.72871701  0.49914469     1.73250
Fe793      Fe  0.36590888  0.63289952  0.50084022     1.54420
O794        O  0.33047731  0.59506190  0.53638521    -0.80500
O795        O  0.41216536  0.73327528  0.96999854    -0.78800
O796        O  0.26401682  0.58305913  0.52639552    -0.83000
O797        O  0.26862847  0.59633679  0.96134639    -0.77860
O798        O  0.41138532  0.67647408  0.53146016    -0.79630
O799        O  0.33082179  0.73012003  0.96242849    -0.82380
C800        C  0.29022997  0.57745540  0.95562015     0.98390
C801        C  0.28973904  0.57486269  0.54098352     1.05830
O802        O  0.33350027  0.66449377  0.49951559    -1.11360
O803        O  0.32110718  0.73278549  0.52822789    -0.73790
O804        O  0.26569895  0.66498367  0.53531632    -0.77280
O805        O  0.32429697  0.58517716  0.97020347    -0.77970
C806        C  0.28659757  0.70553423  0.54175385     0.97290
O807        O  0.26389935  0.67466748  0.96988214    -0.75930
O808        O  0.40276758  0.73446164  0.53563853    -0.81120
C809        C  0.42265749  0.70720332  0.95803186     0.99910
C810        C  0.42085453  0.71296431  0.54344870     1.05830
O811        O  0.40535061  0.66744056  0.96558771    -0.76760
C812        C  0.29042473  0.70939311  0.95644628     1.04130
C813        C  0.55302497  0.77630059  0.86389896     0.04310
C814        C  0.57704773  0.75605094  0.85556606    -0.11840
C815        C  0.60163004  0.76760167  0.82896207     0.01810
C816        C  0.60515407  0.80371053  0.81313853    -0.10370
C817        C  0.58395520  0.82614569  0.82236953     0.04300
C818        C  0.55706521  0.81163466  0.84740282    -0.09790
H819        H  0.57579147  0.73120739  0.86998670     0.09890
H820        H  0.62477311  0.81514796  0.79336910     0.07420
H821        H  0.53920137  0.82772994  0.85397954     0.07270
C822        C  0.55538078  0.77737347  0.63556621     0.04310
C823        C  0.56449108  0.74550908  0.64600321    -0.11840
C824        C  0.60024757  0.75744011  0.66475124     0.01810
C825        C  0.62803729  0.80129434  0.67165277    -0.10370
C826        C  0.61416789  0.83161658  0.66735966     0.04300
C827        C  0.57844145  0.82002670  0.64794208    -0.09790
H828        H  0.54408438  0.71160539  0.63929514     0.09890
H829        H  0.65727518  0.81038316  0.68461508     0.07420
H830        H  0.56835713  0.84344994  0.64276339     0.07270
C831        C  0.33110528  0.01967141  0.74975001     0.01740
C832        C  0.30661424  0.97474151  0.75063681     0.01740
C833        C  0.45677807  0.72426894  0.93432734    -0.04160
C834        C  0.45173984  0.69922890  0.90822021    -0.01280
C835        C  0.48295276  0.71658030  0.88522073     0.03710
C836        C  0.52065721  0.75821057  0.88856819    -0.04160
C837        C  0.52612499  0.78302902  0.91471351    -0.01270
C838        C  0.49438731  0.76628666  0.93742868     0.03710
C839        C  0.41399767  0.65588000  0.90443314     0.38360
C840        C  0.56450224  0.82593277  0.91836334     0.38350
C841        C  0.50133721  0.79203762  0.96442360     0.36770
C842        C  0.47484418  0.69263074  0.85724121     0.36770
N843        N  0.50679246  0.81255888  0.98593145    -0.38050
N844        N  0.46806481  0.67378456  0.83480554    -0.38050
N845        N  0.59488389  0.86026753  0.92156153    -0.37490
N846        N  0.38436788  0.62102590  0.90131732    -0.37500
C847        C  0.52216225  0.76492463  0.61135583    -0.04160
C848        C  0.48361356  0.76654478  0.61583640    -0.01280
C849        C  0.45090561  0.75081758  0.59340580     0.03710
C850        C  0.45585095  0.73189417  0.56674124    -0.04160
C851        C  0.49521725  0.73181154  0.56194051    -0.01270
C852        C  0.52822090  0.74853599  0.58395796     0.03710
C853        C  0.47681535  0.78280946  0.64396262     0.38360
C854        C  0.50264995  0.71591283  0.53381732     0.38350
C855        C  0.56886266  0.74921359  0.57822208     0.36770
C856        C  0.41204759  0.75375617  0.59814512     0.36770
N857        N  0.60120404  0.74965177  0.57373791    -0.38050
N858        N  0.38155621  0.75699728  0.60203081    -0.38050
N859        N  0.50853770  0.70325096  0.51140297    -0.37490
N860        N  0.47146320  0.79579182  0.66641981    -0.37500
C861        C  0.28890819  0.94584691  0.72323490    -0.04160
C862        C  0.31527446  0.93562036  0.70516129    -0.01280
C863        C  0.29608770  0.89561361  0.68882465     0.03710
C864        C  0.24997655  0.87028317  0.68530182    -0.04160
C865        C  0.22493793  0.88780492  0.69715487    -0.01270
C866        C  0.24320747  0.92166523  0.71860229     0.03710
C867        C  0.36199542  0.96500526  0.70408233     0.38360
C868        C  0.18034508  0.87155907  0.68720476     0.38350
C869        C  0.21427217  0.93212225  0.73492531     0.36770
C870        C  0.32410346  0.87971976  0.67801192     0.36770
N871        N  0.18961295  0.93938692  0.74678312    -0.38050
N872        N  0.34679907  0.86722276  0.66966545    -0.38050
N873        N  0.14489761  0.85926895  0.67939764    -0.37490
N874        N  0.39934207  0.98813023  0.70267026    -0.37500
C875        C  0.27001430  0.72203822  0.56603248    -0.04160
C876        C  0.26895111  0.70852352  0.59575279    -0.01280
C877        C  0.25318803  0.72428634  0.61877245     0.03710
C878        C  0.23842894  0.75376107  0.61228852    -0.04160
C879        C  0.24028763  0.76792703  0.58270462    -0.01270
C880        C  0.25555015  0.75175535  0.55962138     0.03710
C881        C  0.28533075  0.67942760  0.60286128     0.38360
C882        C  0.22562014  0.79849881  0.57591143     0.38350
C883        C  0.25403816  0.76399709  0.52905069     0.36770
C884        C  0.25331883  0.71107460  0.64933229     0.36770
N885        N  0.25178536  0.77364093  0.50478346    -0.38050
N886        N  0.25374757  0.70060019  0.67368145    -0.38050
N887        N  0.21412842  0.82306694  0.57055442    -0.37490
N888        N  0.29874703  0.65656476  0.60869680    -0.37500
C889        C  0.25820118  0.88578629  0.82536894    -0.04160
C890        C  0.24918661  0.92031219  0.82430052    -0.01280
C891        C  0.26548567  0.95075800  0.80075464     0.03710
C892        C  0.29450019  0.94932414  0.77947591    -0.04160
C893        C  0.30883010  0.91885847  0.78394296    -0.01270
C894        C  0.28895940  0.88583618  0.80535244     0.03710
C895        C  0.22159156  0.92337225  0.84696183     0.38360
C896        C  0.34545119  0.92182738  0.76756990     0.38350
C897        C  0.29798252  0.85005312  0.80480124     0.36770
C898        C  0.25029424  0.98169098  0.79840278     0.36770
N899        N  0.30519149  0.82159031  0.80407423    -0.38050
N900        N  0.23704512  0.00560674  0.79753059    -0.38050
N901        N  0.37526509  0.92306298  0.75610513    -0.37490
N902        N  0.19959721  0.92569686  0.86507833    -0.37500
C903        C  0.27347374  0.72763808  0.93371742    -0.04160
C904        C  0.24338107  0.70066961  0.91149986    -0.01280
C905        C  0.23009393  0.71924026  0.88896351     0.03710
C906        C  0.23942976  0.76315040  0.89178349    -0.04160
C907        C  0.26655039  0.78896419  0.91588430    -0.01270
C908        C  0.28661663  0.77251131  0.93473168     0.03710
C909        C  0.22532339  0.65369766  0.91180809     0.38360
C910        C  0.27249315  0.83184879  0.92265100     0.38350
C911        C  0.31970808  0.80187180  0.95592001     0.36770
C912        C  0.20895275  0.69335033  0.86239704     0.36770
N913        N  0.34633035  0.82539019  0.97259828    -0.38050
N914        N  0.19221455  0.67253345  0.84124130    -0.38050
N915        N  0.27733310  0.86601660  0.92818687    -0.37490
N916        N  0.20960353  0.61605838  0.91228392    -0.37500
C917        C  0.38743455  0.12382833  0.68663339    -0.04160
C918        C  0.41406805  0.11778925  0.70705904    -0.01280
C919        C  0.39688032  0.07882152  0.72368820     0.03710
C920        C  0.35188757  0.04646942  0.72170122    -0.04160
C921        C  0.32722139  0.05029930  0.69791690    -0.01270
C922        C  0.34526850  0.08876021  0.68051968     0.03710
C923        C  0.45854510  0.15274249  0.71217531     0.38360
C924        C  0.28215911  0.01794502  0.69217424     0.38350
C925        C  0.31979754  0.09312080  0.65676719     0.36770
C926        C  0.42539006  0.07305778  0.74404640     0.36770
N927        N  0.29965798  0.09654598  0.63772229    -0.38050
N928        N  0.44882430  0.06887341  0.75987795    -0.38050
N929        N  0.24615302  0.99475783  0.68536013    -0.37490
N930        N  0.49397813  0.18073890  0.71628568    -0.37500
C931        C  0.54156380  0.26819156  0.56381638    -0.04160
C932        C  0.54794587  0.29265490  0.59038645    -0.01280
C933        C  0.51879230  0.27427998  0.61427388     0.03710
C934        C  0.47889011  0.23505636  0.61014441    -0.04160
C935        C  0.47086291  0.21154610  0.58298789    -0.01270
C936        C  0.50273437  0.22731604  0.56028791     0.03710
C937        C  0.58246450  0.33784622  0.59281201     0.38360
C938        C  0.42962866  0.17149221  0.57823347     0.38350
C939        C  0.49411571  0.20293446  0.53248057     0.36770
C940        C  0.53164485  0.29391359  0.64379912     0.36770
N941        N  0.48730754  0.18366391  0.01022654    -0.38050
N942        N  0.54282657  0.30869409  0.66750362    -0.38050
N943        N  0.39670471  0.13953424  0.57447897    -0.37490
N944        N  0.60821973  0.37462274  0.59463982    -0.37500
C945        C  0.72508251  0.44678522  0.56915753    -0.04160
C946        C  0.74951565  0.49172172  0.56271662    -0.01280
C947        C  0.76441745  0.52269649  0.58605830     0.03710
C948        C  0.75601871  0.50878858  0.61596242    -0.04160
C949        C  0.73353214  0.46385890  0.62256085    -0.01270
C950        C  0.71814831  0.43274889  0.59912069     0.03710
C951        C  0.76083924  0.50610272  0.53211999     0.38360
C952        C  0.72579841  0.44984847  0.65339840     0.38350
C953        C  0.69580820  0.38651086  0.60589066     0.36770
C954        C  0.78849442  0.56902409  0.57934185     0.36770
N955        N  0.67811542  0.34966866  0.61151249    -0.38050
N956        N  0.80758421  0.60596717  0.57405086    -0.38050
N957        N  0.71973988  0.43881636  0.67803827    -0.37490
N958        N  0.77084044  0.51789533  0.00787605    -0.37500
C959        C  0.76206665  0.52776720  0.89374507    -0.04160
C960        C  0.73945690  0.53006546  0.91914958    -0.01280
C961        C  0.71996885  0.49483615  0.93932011     0.03710
C962        C  0.72642410  0.45867779  0.93610043    -0.04160
C963        C  0.75062882  0.45718573  0.91164271    -0.01270
C964        C  0.76656899  0.49030876  0.88996474     0.03710
C965        C  0.73793415  0.56952084  0.92556474     0.38360
C966        C  0.75898569  0.42118970  0.90837899     0.38350
C967        C  0.78659579  0.48431291  0.86355676     0.36770
C968        C  0.69439517  0.49664503  0.96398252     0.36770
N969        N  0.80252009  0.47772096  0.84318718    -0.38050
N970        N  0.67388723  0.49800484  0.98359815    -0.38050
N971        N  0.76670952  0.39324406  0.90573584    -0.37490
N972        N  0.73684969  0.60102148  0.93084542    -0.37500
C973        C  0.47112923  0.23902267  0.88862613    -0.04160
C974        C  0.50875482  0.23584333  0.88315028    -0.01280
C975        C  0.54143624  0.24874821  0.90533356     0.03710
C976        C  0.53982299  0.27019704  0.93170210    -0.04160
C977        C  0.50272622  0.27441988  0.93687007    -0.01270
C978        C  0.46812054  0.25776412  0.91595085     0.03710
C979        C  0.51455783  0.22012849  0.85445423     0.38360
C980        C  0.49840732  0.29292200  0.96485766     0.38350
C981        C  0.42836487  0.25784960  0.92351263     0.36770
C982        C  0.57512204  0.23743408  0.90147028     0.36770
N983        N  0.39665749  0.25775185  0.92972248    -0.38050
N984        N  0.60056141  0.22639793  0.89853526    -0.38050
N985        N  0.49494621  0.30756329  0.98718674    -0.37490
N986        N  0.51921937  0.20762511  0.83157693    -0.37500
C987        C  0.36435652  0.11780356  0.81937904    -0.04160
C988        C  0.34916628  0.11896053  0.79056542    -0.01280
C989        C  0.32712541  0.08119422  0.77357979     0.03710
C990        C  0.33768008  0.04810324  0.77698333    -0.04160
C991        C  0.35966233  0.04874183  0.80393882    -0.01270
C992        C  0.36793399  0.08074524  0.82652101     0.03710
C993        C  0.36887255  0.15901309  0.77403255     0.38360
C994        C  0.37666377  0.01965426  0.80826533     0.38350
C995        C  0.38111869  0.07581106  0.85616065     0.36770
C996        C  0.29537390  0.07858090  0.75199726     0.36770
N997        N  0.39150650  0.07161162  0.87985075    -0.38050
N998        N  0.26943117  0.07741471  0.73570936    -0.38050
N999        N  0.39170538  0.99780324  0.81267527    -0.37490
N1000       N  0.38614102  0.18920374  0.75891796    -0.37500
C1001       C  0.36093541  0.25144175  0.82294436    -0.04160
C1002       C  0.37195949  0.29537982  0.82968792    -0.01280
C1003       C  0.36991444  0.32235781  0.80659880     0.03710
C1004       C  0.36017248  0.30585400  0.77661470    -0.04160
C1005       C  0.36358141  0.26868229  0.77143915    -0.01270
C1006       C  0.34776318  0.23740093  0.79334523     0.03710
C1007       C  0.38217052  0.31175795  0.86008137     0.38360
C1008       C  0.40510228  0.27762391  0.75961174     0.38350
C1009       C  0.30689017  0.19820146  0.78679442     0.36770
C1010       C  0.38595267  0.36796321  0.81311625     0.36770
N1011       N  0.27405289  0.16685019  0.78145581    -0.38050
N1012       N  0.40020843  0.40439874  0.81951100    -0.38050
N1013       N  0.43878061  0.28506483  0.75075089    -0.37490
N1014       N  0.39031327  0.32510858  0.88432684    -0.37500
C1015       C  0.35552671  0.30800282  0.71968727    -0.04160
C1016       C  0.39854433  0.32935492  0.70840448    -0.01280
C1017       C  0.41186715  0.30786158  0.68773327     0.03710
C1018       C  0.38294651  0.26374025  0.67919749    -0.04160
C1019       C  0.33855527  0.24518939  0.68685712    -0.01270
C1020       C  0.32527289  0.26601044  0.70796421     0.03710
C1021       C  0.43160782  0.36933978  0.72282460     0.38360
C1022       C  0.30654359  0.20329699  0.67400186     0.38350
C1023       C  0.28295804  0.23978581  0.72145267     0.36770
C1024       C  0.45635743  0.33099697  0.67720429     0.36770
N1025       N  0.24946840  0.21587893  0.73175975    -0.38050
N1026       N  0.49181646  0.35133020  0.66879476    -0.38050
N1027       N  0.28086645  0.16998260  0.66379051    -0.37490
N1028       N  0.45829665  0.40046997  0.73484318    -0.37500
C1029       C  0.30432759  0.35268100  0.72263115    -0.04160
C1030       C  0.25903749  0.32613880  0.71672126    -0.01280
C1031       C  0.23899096  0.33789985  0.69450675     0.03710
C1032       C  0.25883010  0.38156741  0.68470808    -0.04160
C1033       C  0.30406157  0.40867093  0.69055736    -0.01270
C1034       C  0.32725205  0.39181234  0.70606997     0.03710
C1035       C  0.23051739  0.28915318  0.73495215     0.38360
C1036       C  0.32679312  0.45454909  0.68282065     0.38350
C1037       C  0.37428576  0.41558714  0.70463827     0.36770
C1038       C  0.19829223  0.30420082  0.68158728     0.36770
N1039       N  0.41168838  0.43643013  0.70180878    -0.38050
N1040       N  0.16669465  0.27575990  0.67137960    -0.38050
N1041       N  0.34524312  0.49130744  0.67694297    -0.37490
N1042       N  0.20472183  0.26005513  0.74868151    -0.37500
C1043       C  0.27089436  0.54004913  0.56413115    -0.04160
C1044       C  0.23742347  0.53646107  0.58300088    -0.01280
C1045       C  0.22023236  0.50444121  0.60547513     0.04370
C1046       C  0.23248187  0.47182389  0.60741627    -0.04160
C1047       C  0.26270499  0.47302625  0.58605095    -0.01270
C1048       C  0.28442295  0.50882169  0.56655392     0.03710
C1049       C  0.22070354  0.56628160  0.57988637     0.38360
C1050       C  0.26955633  0.43613714  0.58231960     0.38350
C1051       C  0.32035961  0.51280282  0.54872798     0.36770
C1052       C  0.18998287  0.50654238  0.62612895     0.36770
N1053       N  0.34935683  0.51614877  0.53483245    -0.38050
N1054       N  0.16526273  0.50993915  0.64104515    -0.38050
N1055       N  0.27502365  0.40675455  0.57915928    -0.37490
N1056       N  0.20640977  0.58916935  0.57744300    -0.37500
C1057       C  0.31164600  0.35971796  0.77840064    -0.04160
C1058       C  0.32520244  0.40462873  0.78164927    -0.01280
C1059       C  0.29982468  0.41777874  0.79788623     0.03710
C1060       C  0.26266195  0.38654940  0.81326619    -0.04160
C1061       C  0.25362744  0.34299172  0.81456086    -0.01270
C1062       C  0.27805632  0.32949059  0.79720956     0.03710
C1063       C  0.36665025  0.43791130  0.76989558     0.38360
C1064       C  0.21866466  0.31196373  0.83339855     0.38350
C1065       C  0.26757886  0.28441149  0.79855807     0.36770
C1066       C  0.31075250  0.46320619  0.79729722     0.36770
N1067       N  0.25820139  0.24814109  0.80037089    -0.38050
N1068       N  0.31940582  0.49938193  0.79674282    -0.38050
N1069       N  0.19094397  0.28726449  0.84855736    -0.37490
N1070       N  0.40027877  0.46573147  0.76211258    -0.37500
C1071       C  0.23813523  0.47999903  0.88521965    -0.04160
C1072       C  0.24419462  0.46855615  0.91422521    -0.01280
C1073       C  0.26189863  0.50051104  0.93711090     0.03710
C1074       C  0.27428952  0.54437225  0.93112244    -0.04160
C1075       C  0.27009029  0.55620353  0.90178498    -0.01270
C1076       C  0.25190677  0.52412058  0.87894862     0.03710
C1077       C  0.23245341  0.42377178  0.92047264     0.38360
C1078       C  0.28713887  0.60186369  0.89463643     0.38350
C1079       C  0.24989454  0.53720561  0.84869375     0.36770
C1080       C  0.26632708  0.48773015  0.96695832     0.36770
N1081       N  0.24938912  0.54878839  0.82469529    -0.38050
N1082       N  0.26937964  0.47663105  0.99060410    -0.38050
N1083       N  0.30140151  0.63831391  0.88872740    -0.37490
N1084       N  0.22344270  0.38813291  0.92531427    -0.37500
C1085       C  0.63404566  0.87207371  0.68666927    -0.04160
C1086       C  0.64857703  0.91401383  0.67484391    -0.01280
C1087       C  0.66803453  0.95146417  0.69385978     0.03710
C1088       C  0.66776411  0.94636943  0.72539174    -0.04160
C1089       C  0.66455760  0.90697867  0.73500787    -0.01270
C1090       C  0.64287563  0.86912094  0.71720967     0.03710
C1091       C  0.64692410  0.91927502  0.64285130     0.38360
C1092       C  0.68089755  0.90445034  0.76405016     0.38350
C1093       C  0.62630449  0.82685295  0.73122998     0.36770
C1094       C  0.70248023  0.99064035  0.68046756     0.36770
N1095       N  0.61246013  0.79224688  0.74103579    -0.38050
N1096       N  0.73062404  0.02057956  0.66875333    -0.38050
N1097       N  0.69383055  0.90114433  0.78700310    -0.37490
N1098       N  0.64554691  0.92347016  0.61733876    -0.37500
C1099       C  0.59158630  0.86607509  0.80620780    -0.04160
C1100       C  0.61913482  0.90773759  0.81874973    -0.01280
C1101       C  0.62849659  0.94545184  0.80271792     0.03710
C1102       C  0.62087398  0.94231668  0.77142583    -0.04160
C1103       C  0.58575651  0.90163886  0.76112170    -0.01270
C1104       C  0.57165349  0.86334332  0.77831436     0.03710
C1105       C  0.63815961  0.91242988  0.84816512     0.38360
C1106       C  0.56699879  0.89861585  0.73182902     0.38350
C1107       C  0.53874828  0.82116025  0.76664062     0.36770
C1108       C  0.62445433  0.97791634  0.81996414     0.36770
N1109       N  0.51254395  0.78745946  0.75725867    -0.38050
N1110       N  0.62028989  0.00274696  0.83451029    -0.38050
N1111       N  0.55172675  0.89566398  0.70845976    -0.37490
N1112       N  0.65407442  0.91654745  0.87143044    -0.37500
C1113       C  0.75246549  0.23477058  0.61077328    -0.04160
C1114       C  0.75732404  0.27675308  0.61286154    -0.01280
C1115       C  0.74640593  0.29427138  0.58842320     0.03710
C1116       C  0.72380358  0.26744559  0.56351003    -0.04160
C1117       C  0.71606950  0.22411018  0.56231987    -0.01270
C1118       C  0.73194930  0.20852089  0.58528375     0.03710
C1119       C  0.77093414  0.30087086  0.64088587     0.38360
C1120       C  0.69419516  0.19639162  0.53659341     0.38350
C1121       C  0.72849859  0.16607709  0.58215979     0.36770
C1122       C  0.76051883  0.34045251  0.58867964     0.36770
N1123       N  0.72601540  0.13234622  0.57950454    -0.38050
N1124       N  0.77368246  0.37772228  0.58880824    -0.38050
N1125       N  0.67681337  0.17437721  0.51602297    -0.37490
N1126       N  0.78032551  0.31953614  0.66349096    -0.37500
C1127       C  0.70091968  0.04817775  0.72579173    -0.04160
C1128       C  0.67663604  0.05293301  0.70225453    -0.01280
C1129       C  0.69730873  0.08949895  0.68272321     0.03710
C1130       C  0.73793773  0.12681108  0.69129384    -0.04160
C1131       C  0.75629566  0.12343254  0.71831816    -0.01270
C1132       C  0.74392275  0.08270137  0.73018270     0.03710
C1133       C  0.63146571  0.01975912  0.69728234     0.38360
C1134       C  0.77487671  0.15985031  0.73895906     0.38350
C1135       C  0.77585484  0.07773866  0.74707710     0.36770
C1136       C  0.67631614  0.08737783  0.65455468     0.36770
N1137       N  0.80272997  0.07459294  0.75953951    -0.38050
N1138       N  0.65882587  0.08474860  0.63213869    -0.38050
N1139       N  0.78637570  0.18750244  0.75657275    -0.37490
N1140       N  0.59532537  0.99359442  0.69311820    -0.37500
C1141       C  0.68577128  0.04073011  0.78026353    -0.04160
C1142       C  0.71622759  0.04229025  0.80158741    -0.01280
C1143       C  0.73477906  0.07629514  0.82300448     0.03710
C1144       C  0.72538512  0.11051039  0.82219602    -0.04160
C1145       C  0.69099217  0.10601562  0.80371157    -0.01270
C1146       C  0.67052594  0.07058765  0.78337094     0.03710
C1147       C  0.73218339  0.01189341  0.80007036     0.38360
C1148       C  0.67867514  0.13932313  0.80381959     0.38350
C1149       C  0.63463065  0.06559261  0.76495856     0.36770
C1150       C  0.76614248  0.07795111  0.84464353     0.36770
N1151       N  0.60568563  0.06178221  0.75066851    -0.38050
N1152       N  0.79119832  0.07940039  0.86187531    -0.38050
N1153       N  0.66833217  0.16554211  0.80369742    -0.37490
N1154       N  0.74750567  0.98978429  0.79958243    -0.37500
C1155       C  0.76187390  0.24086648  0.88687914    -0.04160
C1156       C  0.77270303  0.24169113  0.91727717    -0.01280
C1157       C  0.75627529  0.25876413  0.93883463     0.03710
C1158       C  0.72876936  0.27488643  0.93009039    -0.04160
C1159       C  0.72018019  0.27661191  0.89951267    -0.01270
C1160       C  0.73648856  0.25932625  0.87792292     0.03710
C1161       C  0.80041826  0.22451711  0.92636488     0.38360
C1162       C  0.69577673  0.29730420  0.89019749     0.38350
C1163       C  0.72784001  0.26118253  0.84647287     0.36770
C1164       C  0.76814383  0.26027050  0.97003296     0.36770
N1165       N  0.72120008  0.26306445  0.82137639    -0.38050
N1166       N  0.77805417  0.26187213  0.99484457    -0.38050
N1167       N  0.67681093  0.31428778  0.88256253    -0.37490
N1168       N  0.82265788  0.21094008  0.93353650    -0.37500
C1169       C  0.04293701  0.35176924  0.77643902    -0.04160
C1170       C  0.07158430  0.39701508  0.78121200    -0.01280
C1171       C  0.11112149  0.41207066  0.79671454     0.03710
C1172       C  0.11990287  0.38236454  0.81157428    -0.04160
C1173       C  0.08764912  0.33746048  0.81132467    -0.01270
C1174       C  0.04949777  0.32212707  0.79355826     0.03710
C1175       C  0.05829735  0.42830012  0.77355731     0.38360
C1176       C  0.09407168  0.30694152  0.82893642     0.38350
C1177       C  0.01664056  0.27621463  0.79374931     0.36770
C1178       C  0.14381682  0.45797469  0.79503928     0.36770
N1179       N  0.99042995  0.23952671  0.79463551    -0.38050
N1180       N  0.16927499  0.49466366  0.79264002    -0.38050
N1181       N  0.09906106  0.28253619  0.84304930    -0.37490
N1182       N  0.04795869  0.45409156  0.76951347    -0.37500
C1183       C  0.04292032  0.34757290  0.72045143    -0.04160
C1184       C  0.05742198  0.31906644  0.70988746    -0.01280
C1185       C  0.08839664  0.33262377  0.68687931     0.03710
C1186       C  0.11607028  0.37748386  0.68195202    -0.04160
C1187       C  0.10404534  0.40664170  0.69409192    -0.01270
C1188       C  0.06345718  0.39012794  0.70821080     0.03710
C1189       C  0.04770499  0.27938670  0.72503798     0.38360
C1190       C  0.13553969  0.45272551  0.69725295     0.38350
C1191       C  0.04346619  0.41691544  0.70814747     0.36770
C1192       C  0.09106552  0.30057470  0.66817166     0.36770
N1193       N  0.02959099  0.44020696  0.70617012    -0.38050
N1194       N  0.09095954  0.27460793  0.65227270    -0.38050
N1195       N  0.16076765  0.48915640  0.70175508    -0.37490
N1196       N  0.04359047  0.24839307  0.73655635    -0.37500
C1197       C  0.88397835  0.26032142  0.67103324    -0.04160
C1198       C  0.90048792  0.30459293  0.67962263    -0.01280
C1199       C  0.93195712  0.32360084  0.70283229     0.03710
C1200       C  0.94915092  0.29948653  0.71643850    -0.04160
C1201       C  0.93728049  0.25770243  0.70435397    -0.01270
C1202       C  0.90762924  0.24013699  0.68020161     0.03710
C1203       C  0.88425046  0.33057834  0.66598058     0.38360
C1204       C  0.94727893  0.22830418  0.72013091     0.38350
C1205       C  0.89845269  0.19907694  0.66638206     0.36770
C1206       C  0.93846411  0.36334782  0.71719355     0.36770
N1207       N  0.89109778  0.16635316  0.65537091    -0.38050
N1208       N  0.94192620  0.39401154  0.72921823    -0.38050
N1209       N  0.95224236  0.20237548  0.73225143    -0.37490
N1210       N  0.87326293  0.35290463  0.65489795    -0.37500
C1211       C  0.93832812  0.29466882  0.77346045    -0.04160
C1212       C  0.94392395  0.30838568  0.80426596    -0.01280
C1213       C  0.91116186  0.28203020  0.82566835     0.03710
C1214       C  0.87442830  0.24157616  0.81663632    -0.04160
C1215       C  0.87585344  0.22741186  0.78765756    -0.01270
C1216       C  0.89663294  0.25930152  0.76641236     0.03710
C1217       C  0.97657458  0.35159581  0.81400904     0.38360
C1218       C  0.87954146  0.18886356  0.78419292     0.38350
C1219       C  0.86771531  0.27024151  0.75090338     0.36770
C1220       C  0.91754438  0.29455720  0.85697234     0.36770
N1221       N  0.84423585  0.27924033  0.73913554    -0.38050
N1222       N  0.92281772  0.30447972  0.88198240    -0.38050
N1223       N  0.88273343  0.15802505  0.78174785    -0.37490
N1224       N  0.00045907  0.38555651  0.82424704    -0.37500
C1225       C  0.04571138  0.68452559  0.72366537    -0.04160
C1226       C  0.07633466  0.66990531  0.72481161    -0.01280
C1227       C  0.11372582  0.68919045  0.70672331     0.03710
C1228       C  0.11914738  0.72072822  0.68568134    -0.04160
C1229       C  0.08450315  0.72860866  0.68021542    -0.01270
C1230       C  0.04794035  0.71107198  0.69933537     0.03710
C1231       C  0.07044680  0.63628904  0.74571495     0.38360
C1232       C  0.08785597  0.75687206  0.65583697     0.38350
C1233       C  0.01582900  0.72450033  0.69544795     0.36770
C1234       C  0.14808852  0.67902678  0.71143712     0.36770
N1235       N  0.99090222  0.73604899  0.69177812    -0.38050
N1236       N  0.17537620  0.67081920  0.71555567    -0.38050
N1237       N  0.09050476  0.77917860  0.63623389    -0.37490
N1238       N  0.06606535  0.60907049  0.76190914    -0.37500
C1239       C  0.12243978  0.75173752  0.81943957    -0.04160
C1240       C  0.12321383  0.76754099  0.79024533    -0.01280
C1241       C  0.08534859  0.74890444  0.77292813     0.03710
C1242       C  0.05206149  0.70536083  0.77796028    -0.04160
C1243       C  0.05342963  0.68587444  0.80529577    -0.01270
C1244       C  0.08531370  0.71126825  0.82730168     0.03710
C1245       C  0.16318963  0.80043880  0.77616994     0.38360
C1246       C  0.02421987  0.63990832  0.81085208     0.38350
C1247       C  0.07877218  0.69568105  0.85772044     0.36770
C1248       C  0.08075136  0.77627359  0.75098065     0.36770
N1249       N  0.07311589  0.68309003  0.88200371    -0.38050
N1250       N  0.07823201  0.79994471  0.73449746    -0.38050
N1251       N  0.00176422  0.60317828  0.81590792    -0.37490
N1252       N  0.19479324  0.82651324  0.76472442    -0.37500
C1253       C  0.95261110  0.64685428  0.78380987    -0.04160
C1254       C  0.95238791  0.67701459  0.80492308    -0.01280
C1255       C  0.91657489  0.66346522  0.82445904     0.03710
C1256       C  0.87985995  0.62120453  0.82159797    -0.04160
C1257       C  0.88127039  0.59083585  0.80182915    -0.01270
C1258       C  0.91925040  0.60245023  0.78552359     0.03710
C1259       C  0.98563135  0.72282451  0.80473672     0.38360
C1260       C  0.84171774  0.55033973  0.79436113     0.38350
C1261       C  0.92212916  0.56919185  0.76813836     0.36770
C1262       C  0.91562563  0.69407109  0.84574627     0.36770
N1263       N  0.92421126  0.54225988  0.75468100    -0.38050
N1264       N  0.91466576  0.71834305  0.86276227    -0.38050
N1265       N  0.81016086  0.51890153  0.78703495    -0.37490
N1266       N  0.01131668  0.75973379  0.80517707    -0.37500
C1267       C  0.94531229  0.64938948  0.72829017    -0.04160
C1268       C  0.94052965  0.62108509  0.70395783    -0.01280
C1269       C  0.90444388  0.60651597  0.68400317     0.03710
C1270       C  0.86752054  0.60970730  0.69264945    -0.04160
C1271       C  0.87095636  0.63221209  0.71967550    -0.01270
C1272       C  0.91183574  0.65951461  0.73214687     0.03710
C1273       C  0.97007632  0.60457290  0.69974315     0.38360
C1274       C  0.83283430  0.62504367  0.73639732     0.38350
C1275       C  0.91849513  0.69768451  0.74880089     0.36770
C1276       C  0.90632288  0.58912589  0.65501757     0.36770
N1277       N  0.92270304  0.72842395  0.76116687    -0.38050
N1278       N  0.90829904  0.57561648  0.63180800    -0.38050
N1279       N  0.80209862  0.61902011  0.74932557    -0.37490
N1280       N  0.99254656  0.59010911  0.69570396    -0.37500
C1281       C  0.64256580  0.69343376  0.77355275    -0.04160
C1282       C  0.66453574  0.73967545  0.77374586    -0.01280
C1283       C  0.65821215  0.76255643  0.79723655     0.03710
C1284       C  0.62103847  0.74130901  0.81561949    -0.04160
C1285       C  0.59984101  0.69480103  0.81650120    -0.01270
C1286       C  0.61285392  0.67151359  0.79700102     0.03710
C1287       C  0.69105492  0.76454586  0.74875546     0.38360
C1288       C  0.56403068  0.66964357  0.83664479     0.38350
C1289       C  0.59149925  0.62451413  0.79965668     0.36770
C1290       C  0.69191716  0.80711024  0.80383294     0.36770
N1291       N  0.57184253  0.58716781  0.80330210    -0.38050
N1292       N  0.71980828  0.84202252  0.80965307    -0.38050
N1293       N  0.53584668  0.64831502  0.85272835    -0.37490
N1294       N  0.71132842  0.78556096  0.72886326    -0.37500
C1295       C  0.62508058  0.67172609  0.71795591    -0.04160
C1296       C  0.58473493  0.67075383  0.72052315    -0.01280
C1297       C  0.57562139  0.69762955  0.70239720     0.03710
C1298       C  0.60610418  0.72438538  0.68078801    -0.04160
C1299       C  0.64273672  0.72022382  0.67525908    -0.01270
C1300       C  0.64811173  0.68893924  0.69081624     0.03710
C1301       C  0.55159725  0.64090385  0.74082435     0.38360
C1302       C  0.67184347  0.74394302  0.65087921     0.38350
C1303       C  0.65475135  0.66068337  0.67075783     0.36770
C1304       C  0.53667999  0.70034247  0.70771404     0.36770
N1305       N  0.65882639  0.63898218  0.65307164    -0.38050
N1306       N  0.50580932  0.70275707  0.71209642    -0.38050
N1307       N  0.69491235  0.76278739  0.63138532    -0.37490
N1308       N  0.52364480  0.61692346  0.75615131    -0.37500
C1309       C  0.73161900  0.61231572  0.67895155    -0.04160
C1310       C  0.74853285  0.65732187  0.68465255    -0.01280
C1311       C  0.73086142  0.67090744  0.70768805     0.03710
C1312       C  0.69115789  0.64028100  0.72131642    -0.04160
C1313       C  0.66845985  0.59741160  0.70946120    -0.01270
C1314       C  0.69025049  0.58222441  0.69096691     0.03710
C1315       C  0.78371121  0.68960425  0.66644274     0.38360
C1316       C  0.62136843  0.57219494  0.71137790     0.38350
C1317       C  0.67036107  0.53555903  0.68586942     0.36770
C1318       C  0.75226110  0.71694396  0.71508624     0.36770
N1319       N  0.65433621  0.49820326  0.68211498    -0.38050
N1320       N  0.77133381  0.75430266  0.71926259    -0.38050
N1321       N  0.58361693  0.55275324  0.71162215    -0.37490
N1322       N  0.81160012  0.71522908  0.65181446    -0.37500
C1323       C  0.73978783  0.62172178  0.81860139    -0.04160
C1324       C  0.69925475  0.58909847  0.80695505    -0.01280
C1325       C  0.67525016  0.60004500  0.78712227     0.03710
C1326       C  0.69165117  0.64385519  0.77760224    -0.04160
C1327       C  0.73010824  0.67693694  0.79186370    -0.01270
C1328       C  0.75382112  0.66591241  0.81213805     0.03710
C1329       C  0.68284330  0.54336836  0.81384059     0.38360
C1330       C  0.74640753  0.72269194  0.78612016     0.38350
C1331       C  0.79343652  0.70034170  0.82604344     0.36770
C1332       C  0.63339485  0.56480914  0.77704189     0.36770
N1333       N  0.82516999  0.72774366  0.83696435    -0.38050
N1334       N  0.60001871  0.53450718  0.77110930    -0.38050
N1335       N  0.76143635  0.75999081  0.78324078    -0.37490
N1336       N  0.66931493  0.50692546  0.81944284    -0.37500
loop_ 
_geom_bond_atom_site_label_1 
_geom_bond_atom_site_label_2 
_geom_bond_distance 
_geom_bond_site_symmetry_2 
_ccdc_geom_bond_type 
C1            C2   1.383       .  D
C1          C644   1.499       .  S
C1          C658   1.524       .  S
C2          C613   1.521       .  S
C2          C627   1.539       .  S
C3            C4   1.376   1_655  D
C3          C585   1.516       .  S
C3          C599   1.519       .  S
C4          C557   1.514       .  S
C4          C574   1.515       .  S
C5            C6   1.383   1_655  D
C5          C532   1.520       .  S
C5          C543   1.544       .  S
C6          C501   1.505       .  S
C6          C515   1.518       .  S
C7            C8   1.407       .  A
C7           C12   1.400       .  A
C7          C487   1.482       .  S
C8            C9   1.414       .  A
C8           H13   1.078       .  S
C9           C10   1.412       .  A
C9          C546   1.517       .  S
C10          C11   1.402       .  A
C10          H14   1.076       .  S
C11          C12   1.395       .  A
C11         C476   1.492       .  S
C12          H15   1.084       .  S
C16          C17   1.409       .  A
C16          C21   1.408       .  A
C16         C445   1.491       .  S
C17          C18   1.410       .  A
C17          H22   1.077       .  S
C18          C19   1.418       .  A
C18         C462   1.527       .  S
C19          C20   1.411       .  A
C19          H23   1.079       .  S
C20          C21   1.400       .  A
C20         C529   1.515       .  S
C21          H24   1.082       .  S
C25          C26   1.383   1_565  D
C25         C420   1.546       .  S
C25         C434   1.552       .  S
C26         C459   1.511       .  S
C26         C473   1.504       .  S
C27          C28   1.407       .  A
C27          C32   1.399       .  A
C27         C403   1.488       .  S
C28          C29   1.411       .  A
C28          H33   1.083       .  S
C29          C30   1.403       .  A
C29         C504   1.495       .  S
C30          C31   1.402       .  A
C30          H34   1.085       .  S
C31          C32   1.399       .  A
C31         C392   1.484       .  S
C32          H35   1.084       .  S
C36          C37   1.413       .  A
C36          C41   1.419       .  A
C36         C378   1.519       .  S
C37          C38   1.402       .  A
C37          H42   1.081       .  S
C38          C39   1.399       .  A
C38         C518   1.490       .  S
C39          C40   1.405       .  A
C39          H43   1.085       .  S
C40          C41   1.410       .  A
C40         C364   1.513       .  S
C41          H44   1.076       .  S
C45          C46   1.381       .  D
C45         C361   1.518       .  S
C45         C389   1.504       .  S
C46         C336   1.534       .  S
C46         C347   1.519       .  S
C47          C48   1.412       .  A
C47          C52   1.409       .  A
C47         C305   1.500       .  S
C48          C49   1.412       .  A
C48          H53   1.079       .  S
C49          C50   1.409       .  A
C49         C333   1.516       .  S
C50          C51   1.406       .  A
C50          H54   1.075       .  S
C51          C52   1.401       .  A
C51         C319   1.509       .  S
C52          H55   1.078       .  S
C56          C57   1.413       .  A
C56          C61   1.407       .  A
C56         C291   1.507       .  S
C57          C58   1.412       .  A
C57          H62   1.082       .  S
C58          C59   1.404       .  A
C58         C655   1.507       .  S
C59          C60   1.399       .  A
C59          H63   1.083       .  S
C60          C61   1.400       .  A
C60         C588   1.485       .  S
C61          H64   1.083       .  S
Fe65         O81   2.048   1_556  S
Fe65         O71   2.068   1_556  S
Fe65        O746   2.072       .  S
Fe65        O738   2.053       .  S
Fe65        O744   1.981       .  S
Fe66         O69   2.053   1_556  S
Fe66         O73   2.073   1_556  S
Fe66        O745   2.059       .  S
Fe66        O750   2.070       .  S
Fe66        O744   1.978       .  S
Fe67         O72   2.067       .  S
Fe67         O68   2.081       .  S
Fe67        O753   2.079       .  S
Fe67        O747   2.067       .  S
Fe67         O76   1.978       .  S
O68          C75   1.272       .  A
O69          C83   1.266       .  A
O70        Fe733   2.053       .  S
O70          C75   1.266       .  A
O71          C74   1.268       .  A
O72          C84   1.269       .  A
O73          C86   1.270       .  A
C74         C448   1.491       .  S
C74          O79   1.269       .  A
C75         C490   1.477       .  S
O76        Fe733   1.981       .  S
O76        Fe734   1.978       .  S
O77        Fe734   2.059       .  S
O77          C80   1.266       .  A
O78        Fe733   2.072       .  S
O78          C80   1.270       .  A
O79        Fe735   2.067   1_554  S
C80         C294   1.491       .  S
O81          C86   1.264       .  A
O82        Fe734   2.070       .  S
O82          C84   1.272       .  A
C83         C263   1.491       .  S
C83          O85   1.272       .  A
C84         C308   1.494       .  S
O85        Fe735   2.079   1_554  S
C86         C277   1.471       .  S
C87          C88   1.401       .  A
C87          C92   1.406       .  A
C87         C280   1.474       .  S
C88          C89   1.396       .  A
C88          H93   1.083       .  S
C89          C90   1.399       .  A
C89         C641   1.499       .  S
C90          C91   1.406       .  A
C90          H94   1.077       .  S
C91          C92   1.408       .  A
C91         C602   1.512       .  S
C92          H95   1.079       .  S
C96          C97   1.411       .  A
C96         C101   1.403       .  A
C96         C266   1.489       .  S
C97          C98   1.407       .  A
C97         H102   1.082       .  S
C98          C99   1.415       .  A
C98         C350   1.514       .  S
C99         C100   1.407       .  A
C99         H103   1.083       .  S
C100        C101   1.398       .  A
C100        C249   1.495       .  S
C101        H104   1.083       .  S
C105        C106   1.414       .  A
C105        C110   1.408       .  A
C105        C238   1.507       .  S
C106        C107   1.410       .  A
C106        H111   1.073       .  S
C107        C108   1.402       .  A
C107        C571   1.512       .  S
C108        C109   1.395       .  A
C108        H112   1.083       .  S
C109        C110   1.399       .  A
C109        C221   1.493       .  S
C110        H113   1.083       .  S
C114        C115   1.405       .  A
C114        C119   1.411       .  A
C114        C210   1.489       .  S
C115        C116   1.396       .  A
C115        H120   1.083       .  S
C116        C117   1.398       .  A
C116        C560   1.487       .  S
C117        C118   1.411       .  A
C117        H121   1.083       .  S
C118        C119   1.412       .  A
C118        C196   1.515       .  S
C119        H122   1.081       .  S
Fe123       O139   2.074       .  S
Fe123       O129   2.060       .  S
Fe123       O804   2.068       .  S
Fe123       O796   2.070       .  S
Fe123       O802   1.965       .  S
Fe124       O135   2.084   1_556  S
Fe124       O140   2.060   1_556  S
Fe124       O795   2.073       .  S
Fe124       O799   2.052       .  S
Fe124       O134   1.965       .  S
Fe125       O130   2.078       .  S
Fe125       O126   2.063       .  S
Fe125       O811   2.064   1_554  S
Fe125       O805   2.089   1_554  S
Fe125       O134   1.967   1_554  S
O126        C133   1.267       .  A
O127       Fe792   2.073       .  S
O127        C141   1.271       .  A
O128       Fe791   2.070   1_554  S
O128        C133   1.269       .  A
O129        C132   1.270       .  A
O130        C142   1.273       .  A
O131       Fe792   2.052       .  S
O131        C144   1.266       .  A
C132        C406   1.485       .  S
C132        O137   1.274       .  A
C133        C375   1.494       .  S
O134       Fe791   1.965       .  S
O135        C138   1.273       .  A
O136       Fe791   2.068   1_554  S
O136        C138   1.271       .  A
O137       Fe793   2.089       .  S
C138        C207   1.486       .  S
O139        C144   1.268       .  A
O140        C142   1.268       .  A
C141        C165   1.495       .  S
C141        O143   1.269       .  A
C142        C182   1.492       .  S
O143       Fe793   2.064       .  S
C144        C235   1.488       .  S
C145        C146   1.411       .  A
C145        C150   1.402       .  A
C145        C168   1.491       .  S
C146        C147   1.414       .  A
C146        H151   1.078       .  S
C147        C148   1.416       .  A
C147        C616   1.528       .  S
C148        C149   1.401       .  A
C148        H152   1.075       .  S
C149        C150   1.396       .  A
C149        C431   1.492       .  S
C150        H153   1.083       .  S
C154        C155   1.403       .  A
C154        C159   1.414       .  A
C154        C179   1.491       .  S
C155        C156   1.394       .  A
C155        H160   1.084       .  S
C156        C157   1.389       .  A
C156        C630   1.478       .  S
C157        C158   1.402       .  A
C157        H161   1.084       .  S
C158        C159   1.414       .  A
C158        C417   1.503       .  S
C159        H162   1.082       .  S
C163        C164   1.377   1_545  D
C163        C252   1.529       .  S
C163        C322   1.516       .  S
C164        C193   1.509       .  S
C164        C224   1.514       .  S
C165        C166   1.417       .  A
C165        C170   1.418       .  A
C166        C167   1.412       .  A
C166        C171   1.451       .  S
C167        C168   1.413       .  A
C167        C174   1.452       .  S
C168        C169   1.411       .  A
C169        C170   1.413       .  A
C169        C172   1.450       .  S
C170        C173   1.452       .  S
C171        N178   1.157       .  T
C172        N177   1.157       .  T
C173        N175   1.157       .  T
C174        N176   1.157       .  T
C179        C180   1.412       .  A
C179        C184   1.415       .  A
C180        C181   1.415       .  A
C180        C185   1.451       .  S
C181        C182   1.418       .  A
C181        C188   1.449       .  S
C182        C183   1.415       .  A
C183        C184   1.408       .  A
C183        C186   1.453       .  S
C184        C187   1.453       .  S
C185        N192   1.157       .  T
C186        N191   1.157       .  T
C187        N189   1.157       .  T
C188        N190   1.157       .  T
C193        C194   1.414       .  A
C193        C198   1.416       .  A
C194        C195   1.420       .  A
C194        C199   1.448       .  S
C195        C196   1.423       .  A
C195        C202   1.448       .  S
C196        C197   1.416       .  A
C197        C198   1.406       .  A
C197        C200   1.453       .  S
C198        C201   1.451       .  S
C199        N206   1.157       .  T
C200        N205   1.157       .  T
C201        N203   1.157       .  T
C202        N204   1.158       .  T
C207        C208   1.412       .  A
C207        C212   1.414       .  A
C208        C209   1.412       .  A
C208        C213   1.451       .  S
C209        C210   1.414       .  A
C209        C216   1.450       .  S
C210        C211   1.410       .  A
C211        C212   1.412       .  A
C211        C214   1.451       .  S
C212        C215   1.448       .  S
C213        N220   1.157       .  T
C214        N219   1.157       .  T
C215        N217   1.156       .  T
C216        N218   1.157       .  T
C221        C222   1.411       .  A
C221        C226   1.412       .  A
C222        C223   1.414       .  A
C222        C227   1.452       .  S
C223        C224   1.423       .  A
C223        C230   1.447       .  S
C224        C225   1.420       .  A
C225        C226   1.405       .  A
C225        C228   1.450       .  S
C226        C229   1.454       .  S
C227        N234   1.157       .  T
C228        N233   1.157       .  T
C229        N231   1.158       .  T
C230        N232   1.157   1_565  T
C235        C236   1.413       .  A
C235        C240   1.413       .  A
C236        C237   1.412       .  A
C236        C241   1.450       .  S
C237        C238   1.421       .  A
C237        C244   1.451       .  S
C238        C239   1.422       .  A
C239        C240   1.407       .  A
C239        C242   1.453       .  S
C240        C243   1.453       .  S
C241        N248   1.157       .  T
C242        N247   1.157       .  T
C243        N245   1.158       .  T
C244        N246   1.158       .  T
C249        C250   1.406       .  A
C249        C254   1.407       .  A
C250        C251   1.414       .  A
C250        C255   1.450       .  S
C251        C252   1.423       .  A
C251        C258   1.450       .  S
C252        C253   1.427       .  A
C253        C254   1.418       .  A
C253        C256   1.444       .  S
C254        C257   1.453       .  S
C255        N262   1.157       .  T
C256        N261   1.157   1_545  T
C257        N259   1.157       .  T
C258        N260   1.157       .  T
C263        C264   1.415       .  A
C263        C268   1.417       .  A
C264        C265   1.405       .  A
C264        C269   1.448       .  S
C265        C266   1.408       .  A
C265        C272   1.451       .  S
C266        C267   1.413       .  A
C267        C268   1.415       .  A
C267        C270   1.450       .  S
C268        C271   1.451       .  S
C269        N276   1.157       .  T
C270        N275   1.157       .  T
C271        N941   1.157       .  T
C272        N274   1.157       .  T
N273        C939   1.157       .  T
C277        C278   1.409       .  A
C277        C282   1.413       .  A
C278        C279   1.404       .  A
C278        C283   1.451       .  S
C279        C280   1.410       .  A
C279        C286   1.452       .  S
C280        C281   1.409       .  A
C281        C282   1.410       .  A
C281        C284   1.450       .  S
C282        C285   1.450       .  S
C283        N958   1.157       .  T
C284        N289   1.157       .  T
C285        N287   1.158       .  T
C286        N288   1.157       .  T
N290        C951   1.157       .  T
C291        C292   1.418       .  A
C291        C296   1.422       .  A
C292        C293   1.415       .  A
C292        C297   1.451       .  S
C293        C294   1.415       .  A
C293        C300   1.452       .  S
C294        C295   1.410       .  A
C295        C296   1.410       .  A
C295        C298   1.452       .  S
C296        C299   1.449       .  S
C297        N304   1.157       .  T
C298        N303   1.157       .  T
C299        N301   1.156       .  T
C300        N302   1.157       .  T
C305        C306   1.416       .  A
C305        C310   1.417       .  A
C306        C307   1.413       .  A
C306        C311   1.452       .  S
C307        C308   1.416       .  A
C307        C314   1.449       .  S
C308        C309   1.416       .  A
C309        C310   1.411       .  A
C309        C312   1.453       .  S
C310        C313   1.452       .  S
C311        N318   1.158       .  T
C312        N317   1.157       .  T
C313        N315   1.157       .  T
C314        N316   1.157       .  T
C319        C320   1.406       .  A
C319        C324   1.419       .  A
C320        C321   1.381       .  A
C320        C325   1.438       .  S
C321        C322   1.407       .  A
C321        C328   1.450       .  S
C322        C323   1.430       .  A
C323        C324   1.428       .  A
C323        C326   1.445       .  S
C324        C327   1.447       .  S
C325        N332   1.153       .  T
C326        N331   1.157   1_545  T
C327        N329   1.157       .  T
C328        N330   1.157       .  T
C333        C334   1.429       .  A
C333        C338   1.406       .  A
C334        C335   1.439       .  A
C334        C339   1.447       .  S
C335        C336   1.431       .  A
C335        C342   1.443       .  S
C336        C337   1.398       .  A
C337        C338   1.377       .  A
C337        C340   1.444       .  S
C338        C341   1.443       .  S
C339        N346   1.157       .  T
C340        N345   1.158       .  T
C341        N343   1.158       .  T
C342        N344   1.157       .  T
C347        C348   1.415       .  A
C347        C352   1.421       .  A
C348        C349   1.418       .  A
C348        C353   1.452       .  S
C349        C350   1.420       .  A
C349        C356   1.446       .  S
C350        C351   1.412       .  A
C351        C352   1.414       .  A
C351        C354   1.453       .  S
C352        C355   1.446       .  S
C353        N360   1.157       .  T
C354        N359   1.157       .  T
C355        N357   1.156       .  T
C356        N358   1.156       .  T
C361        C362   1.418       .  A
C361        C366   1.419       .  A
C362        C363   1.404       .  A
C362        C367   1.446       .  S
C363        C364   1.412       .  A
C363        C370   1.448       .  S
C364        C365   1.418       .  A
C365        C366   1.419       .  A
C365        C368   1.449       .  S
C366        C369   1.444       .  S
C367        N374   1.158       .  T
C368        N373   1.157       .  T
C369        N371   1.157       .  T
C370        N372   1.155       .  T
C375        C376   1.412       .  A
C375        C380   1.414       .  A
C376        C377   1.412       .  A
C376        C381   1.455       .  S
C377        C378   1.427       .  A
C377        C384   1.447       .  S
C378        C379   1.423       .  A
C379        C380   1.414       .  A
C379        C382   1.452       .  S
C380        C383   1.451       .  S
C381        N388   1.157       .  T
C382        N387   1.157       .  T
C383        N385   1.158       .  T
C384        N386   1.156       .  T
C389        C390   1.416       .  A
C389        C394   1.417       .  A
C390        C391   1.405       .  A
C390        C395   1.448       .  S
C391        C392   1.408       .  A
C391        C398   1.453       .  S
C392        C393   1.410       .  A
C393        C394   1.413       .  A
C393        C396   1.450       .  S
C394        C397   1.447       .  S
C395        N402   1.157       .  T
C396        N401   1.157       .  T
C397        N399   1.156       .  T
C398        N400   1.157       .  T
C403        C404   1.412       .  A
C403        C408   1.413       .  A
C404        C405   1.410       .  A
C404        C409   1.452       .  S
C405        C406   1.413       .  A
C405        C412   1.448       .  S
C406        C407   1.412       .  A
C407        C408   1.412       .  A
C407        C410   1.451       .  S
C408        C411   1.448       .  S
C409        N416   1.157       .  T
C410        N415   1.157       .  T
C411        N413   1.157       .  T
C412        N414   1.156       .  T
C417        C418   1.412       .  A
C417        C422   1.419       .  A
C418        C419   1.421       .  A
C418        C423   1.451       .  S
C419        C420   1.424       .  A
C419        C426   1.445       .  S
C420        C421   1.411       .  A
C421        C422   1.402       .  A
C421        C424   1.445       .  S
C422        C425   1.452       .  S
C423        N430   1.157       .  T
C424        N429   1.155       .  T
C425        N427   1.157       .  T
C426        N428   1.158   1_565  T
C431        C432   1.407       .  A
C431        C436   1.413       .  A
C432        C433   1.406       .  A
C432        C437   1.449       .  S
C433        C434   1.420       .  A
C433        C440   1.445       .  S
C434        C435   1.422       .  A
C435        C436   1.420       .  A
C435        C438   1.449       .  S
C436        C439   1.448       .  S
C437        N444   1.157       .  T
C438        N443   1.157       .  T
C439        N441   1.157       .  T
C440        N442   1.158   1_565  T
C445        C446   1.409       .  A
C445        C450   1.413       .  A
C446        C447   1.408       .  A
C446        C451   1.450       .  S
C447        C448   1.416       .  A
C447        C454   1.449       .  S
C448        C449   1.416       .  A
C449        C450   1.414       .  A
C449        C452   1.451       .  S
C450        C453   1.450       .  S
C451        N458   1.157       .  T
C452        N457   1.157       .  T
C453        N455   1.157       .  T
C454        N456   1.157       .  T
C459        C460   1.424       .  A
C459        C464   1.407       .  A
C460        C461   1.429       .  A
C460        C465   1.448       .  S
C461        C462   1.430       .  A
C461        C468   1.446       .  S
C462        C463   1.407       .  A
C463        C464   1.389       .  A
C463        C466   1.441       .  S
C464        C467   1.444       .  S
C465        N472   1.157   1_545  T
C466        N471   1.154       .  T
C467        N469   1.157       .  T
C468        N470   1.157       .  T
C473        C474   1.420       .  A
C473        C478   1.415       .  A
C474        C475   1.409       .  A
C474        C479   1.447       .  S
C475        C476   1.409       .  A
C475        C482   1.453       .  S
C476        C477   1.414       .  A
C477        C478   1.412       .  A
C477        C480   1.449       .  S
C478        C481   1.449       .  S
C479        N486   1.156   1_545  T
C480        N485   1.157       .  T
C481        N483   1.157       .  T
C482        N484   1.157       .  T
C487        C488   1.410       .  A
C487        C492   1.412       .  A
C488        C489   1.408       .  A
C488        C493   1.451       .  S
C489        C490   1.412       .  A
C489        C496   1.451       .  S
C490        C491   1.411       .  A
C491        C492   1.411       .  A
C491        C494   1.449       .  S
C492        C495   1.450       .  S
C493        N500   1.157       .  T
C494        N499   1.158       .  T
C495        N497   1.157       .  T
C496        N498   1.157       .  T
C501        C502   1.414       .  A
C501        C506   1.414       .  A
C502        C503   1.404       .  A
C502        C507   1.448       .  S
C503        C504   1.409       .  A
C503        C510   1.448       .  S
C504        C505   1.416       .  A
C505        C506   1.418       .  A
C505        C508   1.449       .  S
C506        C509   1.447       .  S
C507        N514   1.157       .  T
C508        N513   1.157       .  T
C509        N511   1.157   1_455  T
C510        N512   1.156       .  T
C515        C516   1.422       .  A
C515        C520   1.418       .  A
C516        C517   1.407       .  A
C516        C521   1.442       .  S
C517        C518   1.404       .  A
C517        C524   1.446       .  S
C518        C519   1.406       .  A
C519        C520   1.406       .  A
C519        C522   1.446       .  S
C520        C523   1.441       .  S
C521        N528   1.157       .  T
C522        N527   1.157       .  T
C523        N525   1.157       .  T
C524        N526   1.157       .  T
C529        C530   1.419       .  A
C529        C534   1.410       .  A
C530        C531   1.417       .  A
C530        C535   1.446       .  S
C531        C532   1.415       .  A
C531        C538   1.451       .  S
C532        C533   1.420       .  A
C533        C534   1.411       .  A
C533        C536   1.445       .  S
C534        C537   1.453       .  S
C535        N542   1.157       .  T
C536        N541   1.157       .  T
C537        N539   1.157       .  T
C538        N540   1.157       .  T
C543        C544   1.439       .  A
C543        C548   1.409       .  A
C544        C545   1.438       .  A
C544        C549   1.441       .  S
C545        C546   1.423       .  A
C545        C552   1.450       .  S
C546        C547   1.398       .  A
C547        C548   1.380       .  A
C547        C550   1.442       .  S
C548        C551   1.444       .  S
C549        N556   1.157   1_655  T
C550        N555   1.157       .  T
C551        N553   1.158       .  T
C552        N554   1.158       .  T
C557        C558   1.420       .  A
C557        C562   1.420       .  A
C558        C559   1.408       .  A
C558        C563   1.450       .  S
C559        C560   1.404       .  A
C559        C566   1.449       .  S
C560        C561   1.412       .  A
C561        C562   1.415       .  A
C561        C564   1.451       .  S
C562        C565   1.449       .  S
C563        N570   1.157       .  T
C564        N569   1.157       .  T
C565        N567   1.158   1_455  T
C566        N568   1.157       .  T
C571        C572   1.421       .  A
C571        C576   1.422       .  A
C572        C573   1.392       .  A
C572        C577   1.455       .  S
C573        C574   1.413       .  A
C573        C580   1.451       .  S
C574        C575   1.422       .  A
C575        C576   1.421       .  A
C575        C578   1.447       .  S
C576        C579   1.448       .  S
C577        N584   1.158       .  T
C578        N583   1.157       .  T
C579        N581   1.158       .  T
C580        N582   1.157       .  T
C585        C586   1.423       .  A
C585        C590   1.417       .  A
C586        C587   1.417       .  A
C586        C591   1.448       .  S
C587        C588   1.410       .  A
C587        C594   1.450       .  S
C588        C589   1.407       .  A
C589        C590   1.403       .  A
C589        C592   1.450       .  S
C590        C593   1.452       .  S
C591        N598   1.157   1_655  T
C592        N597   1.157       .  T
C593        N595   1.157       .  T
C594        N596   1.157       .  T
C599        C600   1.425       .  A
C599        C604   1.413       .  A
C600        C601   1.424       .  A
C600        C605   1.446       .  S
C601        C602   1.424       .  A
C601        C608   1.448       .  S
C602        C603   1.415       .  A
C603        C604   1.388       .  A
C603        C606   1.454       .  S
C604        C607   1.449       .  S
C605        N612   1.157       .  T
C606        N611   1.157       .  T
C607        N609   1.157       .  T
C608        N610   1.158       .  T
C613        C614   1.415       .  A
C613        C618   1.418       .  A
C614        C615   1.408       .  A
C614        C619   1.449       .  S
C615        C616   1.413       .  A
C615        C622   1.449       .  S
C616        C617   1.426       .  A
C617        C618   1.424       .  A
C617        C620   1.449       .  S
C618        C621   1.446       .  S
C619        N626   1.157       .  T
C620        N625   1.158       .  T
C621        N623   1.156       .  T
C622        N624   1.157       .  T
C627        C628   1.419       .  A
C627        C632   1.425       .  A
C628        C629   1.410       .  A
C628        C633   1.447       .  S
C629        C630   1.411       .  A
C629        C636   1.452       .  S
C630        C631   1.402       .  A
C631        C632   1.404       .  A
C631        C634   1.452       .  S
C632        C635   1.444       .  S
C633        N640   1.157       .  T
C634        N639   1.157       .  T
C635        N637   1.158       .  T
C636        N638   1.157       .  T
C641        C642   1.412       .  A
C641        C646   1.420       .  A
C642        C643   1.409       .  A
C642        C647   1.453       .  S
C643        C644   1.417       .  A
C643        C650   1.445       .  S
C644        C645   1.411       .  A
C645        C646   1.409       .  A
C645        C648   1.448       .  S
C646        C649   1.449       .  S
C647        N654   1.157       .  T
C648        N653   1.158       .  T
C649        N651   1.157       .  T
C650        N652   1.156       .  T
C655        C656   1.411       .  A
C655        C660   1.415       .  A
C656        C657   1.414       .  A
C656        C661   1.454       .  S
C657        C658   1.424       .  A
C657        C664   1.446       .  S
C658        C659   1.421       .  A
C659        C660   1.420       .  A
C659        C662   1.445       .  S
C660        C663   1.453       .  S
C661        N668   1.158       .  T
C662        N667   1.157       .  T
C663        N665   1.157       .  T
C664        N666   1.158       .  T
C669        C670   1.383       .  D
C669       C1312   1.499       .  S
C669       C1326   1.524       .  S
C670       C1281   1.521       .  S
C670       C1295   1.539       .  S
C671        C672   1.376   1_655  D
C671       C1253   1.516       .  S
C671       C1267   1.519       .  S
C672       C1225   1.514       .  S
C672       C1242   1.515       .  S
C673        C674   1.383   1_655  D
C673       C1200   1.520       .  S
C673       C1211   1.544       .  S
C674       C1169   1.505       .  S
C674       C1183   1.518       .  S
C675        C676   1.407       .  A
C675        C680   1.400       .  A
C675       C1155   1.482       .  S
C676        C677   1.414       .  A
C676        H681   1.078       .  S
C677        C678   1.412       .  A
C677       C1214   1.517       .  S
C678        C679   1.402       .  A
C678        H682   1.076       .  S
C679        C680   1.395       .  A
C679       C1144   1.492       .  S
C680        H683   1.084       .  S
C684        C685   1.409       .  A
C684        C689   1.408       .  A
C684       C1113   1.491       .  S
C685        C686   1.410       .  A
C685        H690   1.077       .  S
C686        C687   1.418       .  A
C686       C1130   1.527       .  S
C687        C688   1.411       .  A
C687        H691   1.079       .  S
C688        C689   1.400       .  A
C688       C1197   1.515       .  S
C689        H692   1.082       .  S
C693        C694   1.383   1_565  D
C693       C1088   1.546       .  S
C693       C1102   1.552       .  S
C694       C1127   1.511       .  S
C694       C1141   1.504       .  S
C695        C696   1.407       .  A
C695        C700   1.399       .  A
C695       C1071   1.488       .  S
C696        C697   1.411       .  A
C696        H701   1.083       .  S
C697        C698   1.403       .  A
C697       C1172   1.495       .  S
C698        C699   1.402       .  A
C698        H702   1.085       .  S
C699        C700   1.399       .  A
C699       C1060   1.484       .  S
C700        H703   1.084       .  S
C704        C705   1.413       .  A
C704        C709   1.419       .  A
C704       C1046   1.519       .  S
C705        C706   1.402       .  A
C705        H710   1.081       .  S
C706        C707   1.399       .  A
C706       C1186   1.490       .  S
C707        C708   1.405       .  A
C707        H711   1.085       .  S
C708        C709   1.410       .  A
C708       C1032   1.513       .  S
C709        H712   1.076       .  S
C713        C714   1.381       .  D
C713       C1029   1.518       .  S
C713       C1057   1.504       .  S
C714       C1004   1.534       .  S
C714       C1015   1.519       .  S
C715        C716   1.412       .  A
C715        C720   1.409       .  A
C715        C973   1.500       .  S
C716        C717   1.412       .  A
C716        H721   1.079       .  S
C717        C718   1.409       .  A
C717       C1001   1.516       .  S
C718        C719   1.406       .  A
C718        H722   1.075       .  S
C719        C720   1.401       .  A
C719        C987   1.509       .  S
C720        H723   1.078       .  S
C724        C725   1.413       .  A
C724        C729   1.407       .  A
C724        C959   1.507       .  S
C725        C726   1.412       .  A
C725        H730   1.082       .  S
C726        C727   1.404       .  A
C726       C1323   1.507       .  S
C727        C728   1.399       .  A
C727        H731   1.083       .  S
C728        C729   1.400       .  A
C728       C1256   1.485       .  S
C729        H732   1.083       .  S
Fe733       O749   2.048       .  S
Fe733       O739   2.068       .  S
Fe734       O737   2.053       .  S
Fe734       O741   2.073       .  S
Fe735       O740   2.067       .  S
Fe735       O736   2.081       .  S
Fe735       O744   1.978       .  S
O736        C743   1.272       .  A
O737        C751   1.266       .  A
O738        C743   1.266       .  A
O739        C742   1.268       .  A
O740        C752   1.269       .  A
O741        C754   1.270       .  A
C742       C1116   1.491       .  S
C742        O747   1.269       .  A
C743       C1158   1.477       .  S
O745        C748   1.266       .  A
O746        C748   1.270       .  A
C748        C962   1.491       .  S
O749        C754   1.264       .  A
O750        C752   1.272       .  A
C751        C931   1.491       .  S
C751        O753   1.272       .  A
C752        C976   1.494       .  S
C754        C945   1.471       .  S
C755        C756   1.401       .  A
C755        C760   1.406       .  A
C755        C948   1.474       .  S
C756        C757   1.396       .  A
C756        H761   1.083       .  S
C757        C758   1.399       .  A
C757       C1309   1.499       .  S
C758        C759   1.406       .  A
C758        H762   1.077       .  S
C759        C760   1.408       .  A
C759       C1270   1.512       .  S
C760        H763   1.079       .  S
C764        C765   1.411       .  A
C764        C769   1.403       .  A
C764        C934   1.489       .  S
C765        C766   1.407       .  A
C765        H770   1.082       .  S
C766        C767   1.415       .  A
C766       C1018   1.514       .  S
C767        C768   1.407       .  A
C767        H771   1.083       .  S
C768        C769   1.398       .  A
C768        C917   1.495       .  S
C769        H772   1.083       .  S
C773        C774   1.414       .  A
C773        C778   1.408       .  A
C773        C906   1.507       .  S
C774        C775   1.410       .  A
C774        H779   1.073       .  S
C775        C776   1.402       .  A
C775       C1239   1.512       .  S
C776        C777   1.395       .  A
C776        H780   1.083       .  S
C777        C778   1.399       .  A
C777        C889   1.493       .  S
C778        H781   1.083       .  S
C782        C783   1.405       .  A
C782        C787   1.411       .  A
C782        C878   1.489       .  S
C783        C784   1.396       .  A
C783        H788   1.083       .  S
C784        C785   1.398       .  A
C784       C1228   1.487       .  S
C785        C786   1.411       .  A
C785        H789   1.083       .  S
C786        C787   1.412       .  A
C786        C864   1.515       .  S
C787        H790   1.081       .  S
Fe791       O807   2.074       .  S
Fe791       O797   2.060       .  S
Fe792       O803   2.084       .  S
Fe792       O808   2.060       .  S
Fe792       O802   1.965       .  S
Fe793       O798   2.078       .  S
Fe793       O794   2.063       .  S
Fe793       O802   1.967       .  S
O794        C801   1.267       .  A
O795        C809   1.271       .  A
O796        C801   1.269       .  A
O797        C800   1.270       .  A
O798        C810   1.273       .  A
O799        C812   1.266       .  A
C800       C1074   1.485       .  S
C800        O805   1.274       .  A
C801       C1043   1.494       .  S
O803        C806   1.273       .  A
O804        C806   1.271       .  A
C806        C875   1.486       .  S
O807        C812   1.268       .  A
O808        C810   1.268       .  A
C809        C833   1.495       .  S
C809        O811   1.269       .  A
C810        C850   1.492       .  S
C812        C903   1.488       .  S
C813        C814   1.411       .  A
C813        C818   1.402       .  A
C813        C836   1.491       .  S
C814        C815   1.414       .  A
C814        H819   1.078       .  S
C815        C816   1.416       .  A
C815       C1284   1.528       .  S
C816        C817   1.401       .  A
C816        H820   1.075       .  S
C817        C818   1.396       .  A
C817       C1099   1.492       .  S
C818        H821   1.083       .  S
C822        C823   1.403       .  A
C822        C827   1.414       .  A
C822        C847   1.491       .  S
C823        C824   1.394       .  A
C823        H828   1.084       .  S
C824        C825   1.389       .  A
C824       C1298   1.478       .  S
C825        C826   1.402       .  A
C825        H829   1.084       .  S
C826        C827   1.414       .  A
C826       C1085   1.503       .  S
C827        H830   1.082       .  S
C831        C832   1.377   1_545  D
C831        C920   1.529       .  S
C831        C990   1.516       .  S
C832        C861   1.509       .  S
C832        C892   1.514       .  S
C833        C834   1.417       .  A
C833        C838   1.418       .  A
C834        C835   1.412       .  A
C834        C839   1.451       .  S
C835        C836   1.413       .  A
C835        C842   1.452       .  S
C836        C837   1.411       .  A
C837        C838   1.413       .  A
C837        C840   1.450       .  S
C838        C841   1.452       .  S
C839        N846   1.157       .  T
C840        N845   1.157       .  T
C841        N843   1.157       .  T
C842        N844   1.157       .  T
C847        C848   1.412       .  A
C847        C852   1.415       .  A
C848        C849   1.415       .  A
C848        C853   1.451       .  S
C849        C850   1.418       .  A
C849        C856   1.449       .  S
C850        C851   1.415       .  A
C851        C852   1.408       .  A
C851        C854   1.453       .  S
C852        C855   1.453       .  S
C853        N860   1.157       .  T
C854        N859   1.157       .  T
C855        N857   1.157       .  T
C856        N858   1.157       .  T
C861        C862   1.414       .  A
C861        C866   1.416       .  A
C862        C863   1.420       .  A
C862        C867   1.448       .  S
C863        C864   1.423       .  A
C863        C870   1.448       .  S
C864        C865   1.416       .  A
C865        C866   1.406       .  A
C865        C868   1.453       .  S
C866        C869   1.451       .  S
C867        N874   1.157       .  T
C868        N873   1.157       .  T
C869        N871   1.157       .  T
C870        N872   1.158       .  T
C875        C876   1.412       .  A
C875        C880   1.414       .  A
C876        C877   1.412       .  A
C876        C881   1.451       .  S
C877        C878   1.414       .  A
C877        C884   1.450       .  S
C878        C879   1.410       .  A
C879        C880   1.412       .  A
C879        C882   1.451       .  S
C880        C883   1.448       .  S
C881        N888   1.157       .  T
C882        N887   1.157       .  T
C883        N885   1.156       .  T
C884        N886   1.157       .  T
C889        C890   1.411       .  A
C889        C894   1.412       .  A
C890        C891   1.414       .  A
C890        C895   1.452       .  S
C891        C892   1.423       .  A
C891        C898   1.447       .  S
C892        C893   1.420       .  A
C893        C894   1.405       .  A
C893        C896   1.450       .  S
C894        C897   1.454       .  S
C895        N902   1.157       .  T
C896        N901   1.157       .  T
C897        N899   1.158       .  T
C898        N900   1.157   1_565  T
C903        C904   1.413       .  A
C903        C908   1.413       .  A
C904        C905   1.412       .  A
C904        C909   1.450       .  S
C905        C906   1.421       .  A
C905        C912   1.451       .  S
C906        C907   1.422       .  A
C907        C908   1.407       .  A
C907        C910   1.453       .  S
C908        C911   1.453       .  S
C909        N916   1.157       .  T
C910        N915   1.157       .  T
C911        N913   1.158       .  T
C912        N914   1.158       .  T
C917        C918   1.406       .  A
C917        C922   1.407       .  A
C918        C919   1.414       .  A
C918        C923   1.450       .  S
C919        C920   1.423       .  A
C919        C926   1.450       .  S
C920        C921   1.427       .  A
C921        C922   1.418       .  A
C921        C924   1.444       .  S
C922        C925   1.453       .  S
C923        N930   1.157       .  T
C924        N929   1.157   1_545  T
C925        N927   1.157       .  T
C926        N928   1.157       .  T
C931        C932   1.415       .  A
C931        C936   1.417       .  A
C932        C933   1.405       .  A
C932        C937   1.448       .  S
C933        C934   1.408       .  A
C933        C940   1.451       .  S
C934        C935   1.413       .  A
C935        C936   1.415       .  A
C935        C938   1.450       .  S
C936        C939   1.451       .  S
C937        N944   1.157       .  T
C938        N943   1.157       .  T
C940        N942   1.157       .  T
C945        C946   1.409       .  A
C945        C950   1.413       .  A
C946        C947   1.404       .  A
C946        C951   1.451       .  S
C947        C948   1.410       .  A
C947        C954   1.452       .  S
C948        C949   1.409       .  A
C949        C950   1.410       .  A
C949        C952   1.450       .  S
C950        C953   1.450       .  S
C952        N957   1.157       .  T
C953        N955   1.158       .  T
C954        N956   1.157       .  T
C959        C960   1.418       .  A
C959        C964   1.422       .  A
C960        C961   1.415       .  A
C960        C965   1.451       .  S
C961        C962   1.415       .  A
C961        C968   1.452       .  S
C962        C963   1.410       .  A
C963        C964   1.410       .  A
C963        C966   1.452       .  S
C964        C967   1.449       .  S
C965        N972   1.157       .  T
C966        N971   1.157       .  T
C967        N969   1.156       .  T
C968        N970   1.157       .  T
C973        C974   1.416       .  A
C973        C978   1.417       .  A
C974        C975   1.413       .  A
C974        C979   1.452       .  S
C975        C976   1.416       .  A
C975        C982   1.449       .  S
C976        C977   1.416       .  A
C977        C978   1.411       .  A
C977        C980   1.453       .  S
C978        C981   1.452       .  S
C979        N986   1.158       .  T
C980        N985   1.157       .  T
C981        N983   1.157       .  T
C982        N984   1.157       .  T
C987        C988   1.406       .  A
C987        C992   1.419       .  A
C988        C989   1.381       .  A
C988        C993   1.438       .  S
C989        C990   1.407       .  A
C989        C996   1.450       .  S
C990        C991   1.430       .  A
C991        C992   1.428       .  A
C991        C994   1.445       .  S
C992        C995   1.447       .  S
C993       N1000   1.153       .  T
C994        N999   1.157   1_545  T
C995        N997   1.157       .  T
C996        N998   1.157       .  T
C1001      C1002   1.429       .  A
C1001      C1006   1.406       .  A
C1002      C1003   1.439       .  A
C1002      C1007   1.447       .  S
C1003      C1004   1.431       .  A
C1003      C1010   1.443       .  S
C1004      C1005   1.398       .  A
C1005      C1006   1.377       .  A
C1005      C1008   1.444       .  S
C1006      C1009   1.443       .  S
C1007      N1014   1.157       .  T
C1008      N1013   1.158       .  T
C1009      N1011   1.158       .  T
C1010      N1012   1.157       .  T
C1015      C1016   1.415       .  A
C1015      C1020   1.421       .  A
C1016      C1017   1.418       .  A
C1016      C1021   1.452       .  S
C1017      C1018   1.420       .  A
C1017      C1024   1.446       .  S
C1018      C1019   1.412       .  A
C1019      C1020   1.414       .  A
C1019      C1022   1.453       .  S
C1020      C1023   1.446       .  S
C1021      N1028   1.157       .  T
C1022      N1027   1.157       .  T
C1023      N1025   1.156       .  T
C1024      N1026   1.156       .  T
C1029      C1030   1.418       .  A
C1029      C1034   1.419       .  A
C1030      C1031   1.404       .  A
C1030      C1035   1.446       .  S
C1031      C1032   1.412       .  A
C1031      C1038   1.448       .  S
C1032      C1033   1.418       .  A
C1033      C1034   1.419       .  A
C1033      C1036   1.449       .  S
C1034      C1037   1.444       .  S
C1035      N1042   1.158       .  T
C1036      N1041   1.157       .  T
C1037      N1039   1.157       .  T
C1038      N1040   1.155       .  T
C1043      C1044   1.412       .  A
C1043      C1048   1.414       .  A
C1044      C1045   1.412       .  A
C1044      C1049   1.455       .  S
C1045      C1046   1.427       .  A
C1045      C1052   1.447       .  S
C1046      C1047   1.423       .  A
C1047      C1048   1.414       .  A
C1047      C1050   1.452       .  S
C1048      C1051   1.451       .  S
C1049      N1056   1.157       .  T
C1050      N1055   1.157       .  T
C1051      N1053   1.158       .  T
C1052      N1054   1.156       .  T
C1057      C1058   1.416       .  A
C1057      C1062   1.417       .  A
C1058      C1059   1.405       .  A
C1058      C1063   1.448       .  S
C1059      C1060   1.408       .  A
C1059      C1066   1.453       .  S
C1060      C1061   1.410       .  A
C1061      C1062   1.413       .  A
C1061      C1064   1.450       .  S
C1062      C1065   1.447       .  S
C1063      N1070   1.157       .  T
C1064      N1069   1.157       .  T
C1065      N1067   1.156       .  T
C1066      N1068   1.157       .  T
C1071      C1072   1.412       .  A
C1071      C1076   1.413       .  A
C1072      C1073   1.410       .  A
C1072      C1077   1.452       .  S
C1073      C1074   1.413       .  A
C1073      C1080   1.448       .  S
C1074      C1075   1.412       .  A
C1075      C1076   1.412       .  A
C1075      C1078   1.451       .  S
C1076      C1079   1.448       .  S
C1077      N1084   1.157       .  T
C1078      N1083   1.157       .  T
C1079      N1081   1.157       .  T
C1080      N1082   1.156       .  T
C1085      C1086   1.412       .  A
C1085      C1090   1.419       .  A
C1086      C1087   1.421       .  A
C1086      C1091   1.451       .  S
C1087      C1088   1.424       .  A
C1087      C1094   1.445       .  S
C1088      C1089   1.411       .  A
C1089      C1090   1.402       .  A
C1089      C1092   1.445       .  S
C1090      C1093   1.452       .  S
C1091      N1098   1.157       .  T
C1092      N1097   1.155       .  T
C1093      N1095   1.157       .  T
C1094      N1096   1.158   1_565  T
C1099      C1100   1.407       .  A
C1099      C1104   1.413       .  A
C1100      C1101   1.406       .  A
C1100      C1105   1.449       .  S
C1101      C1102   1.420       .  A
C1101      C1108   1.445       .  S
C1102      C1103   1.422       .  A
C1103      C1104   1.420       .  A
C1103      C1106   1.449       .  S
C1104      C1107   1.448       .  S
C1105      N1112   1.157       .  T
C1106      N1111   1.157       .  T
C1107      N1109   1.157       .  T
C1108      N1110   1.158   1_565  T
C1113      C1114   1.409       .  A
C1113      C1118   1.413       .  A
C1114      C1115   1.408       .  A
C1114      C1119   1.450       .  S
C1115      C1116   1.416       .  A
C1115      C1122   1.449       .  S
C1116      C1117   1.416       .  A
C1117      C1118   1.414       .  A
C1117      C1120   1.451       .  S
C1118      C1121   1.450       .  S
C1119      N1126   1.157       .  T
C1120      N1125   1.157       .  T
C1121      N1123   1.157       .  T
C1122      N1124   1.157       .  T
C1127      C1128   1.424       .  A
C1127      C1132   1.407       .  A
C1128      C1129   1.429       .  A
C1128      C1133   1.448       .  S
C1129      C1130   1.430       .  A
C1129      C1136   1.446       .  S
C1130      C1131   1.407       .  A
C1131      C1132   1.389       .  A
C1131      C1134   1.441       .  S
C1132      C1135   1.444       .  S
C1133      N1140   1.157   1_545  T
C1134      N1139   1.154       .  T
C1135      N1137   1.157       .  T
C1136      N1138   1.157       .  T
C1141      C1142   1.420       .  A
C1141      C1146   1.415       .  A
C1142      C1143   1.409       .  A
C1142      C1147   1.447       .  S
C1143      C1144   1.409       .  A
C1143      C1150   1.453       .  S
C1144      C1145   1.414       .  A
C1145      C1146   1.412       .  A
C1145      C1148   1.449       .  S
C1146      C1149   1.449       .  S
C1147      N1154   1.156   1_545  T
C1148      N1153   1.157       .  T
C1149      N1151   1.157       .  T
C1150      N1152   1.157       .  T
C1155      C1156   1.410       .  A
C1155      C1160   1.412       .  A
C1156      C1157   1.408       .  A
C1156      C1161   1.451       .  S
C1157      C1158   1.412       .  A
C1157      C1164   1.451       .  S
C1158      C1159   1.411       .  A
C1159      C1160   1.411       .  A
C1159      C1162   1.449       .  S
C1160      C1163   1.450       .  S
C1161      N1168   1.157       .  T
C1162      N1167   1.158       .  T
C1163      N1165   1.157       .  T
C1164      N1166   1.157       .  T
C1169      C1170   1.414       .  A
C1169      C1174   1.414       .  A
C1170      C1171   1.404       .  A
C1170      C1175   1.448       .  S
C1171      C1172   1.409       .  A
C1171      C1178   1.448       .  S
C1172      C1173   1.416       .  A
C1173      C1174   1.418       .  A
C1173      C1176   1.449       .  S
C1174      C1177   1.447       .  S
C1175      N1182   1.157       .  T
C1176      N1181   1.157       .  T
C1177      N1179   1.157   1_455  T
C1178      N1180   1.156       .  T
C1183      C1184   1.422       .  A
C1183      C1188   1.418       .  A
C1184      C1185   1.407       .  A
C1184      C1189   1.442       .  S
C1185      C1186   1.404       .  A
C1185      C1192   1.446       .  S
C1186      C1187   1.406       .  A
C1187      C1188   1.406       .  A
C1187      C1190   1.446       .  S
C1188      C1191   1.441       .  S
C1189      N1196   1.157       .  T
C1190      N1195   1.157       .  T
C1191      N1193   1.157       .  T
C1192      N1194   1.157       .  T
C1197      C1198   1.419       .  A
C1197      C1202   1.410       .  A
C1198      C1199   1.417       .  A
C1198      C1203   1.446       .  S
C1199      C1200   1.415       .  A
C1199      C1206   1.451       .  S
C1200      C1201   1.420       .  A
C1201      C1202   1.411       .  A
C1201      C1204   1.445       .  S
C1202      C1205   1.453       .  S
C1203      N1210   1.157       .  T
C1204      N1209   1.157       .  T
C1205      N1207   1.157       .  T
C1206      N1208   1.157       .  T
C1211      C1212   1.439       .  A
C1211      C1216   1.409       .  A
C1212      C1213   1.438       .  A
C1212      C1217   1.441       .  S
C1213      C1214   1.423       .  A
C1213      C1220   1.450       .  S
C1214      C1215   1.398       .  A
C1215      C1216   1.380       .  A
C1215      C1218   1.442       .  S
C1216      C1219   1.444       .  S
C1217      N1224   1.157   1_655  T
C1218      N1223   1.157       .  T
C1219      N1221   1.158       .  T
C1220      N1222   1.158       .  T
C1225      C1226   1.420       .  A
C1225      C1230   1.420       .  A
C1226      C1227   1.408       .  A
C1226      C1231   1.450       .  S
C1227      C1228   1.404       .  A
C1227      C1234   1.449       .  S
C1228      C1229   1.412       .  A
C1229      C1230   1.415       .  A
C1229      C1232   1.451       .  S
C1230      C1233   1.449       .  S
C1231      N1238   1.157       .  T
C1232      N1237   1.157       .  T
C1233      N1235   1.158   1_455  T
C1234      N1236   1.157       .  T
C1239      C1240   1.421       .  A
C1239      C1244   1.422       .  A
C1240      C1241   1.392       .  A
C1240      C1245   1.455       .  S
C1241      C1242   1.413       .  A
C1241      C1248   1.451       .  S
C1242      C1243   1.422       .  A
C1243      C1244   1.421       .  A
C1243      C1246   1.447       .  S
C1244      C1247   1.448       .  S
C1245      N1252   1.158       .  T
C1246      N1251   1.157       .  T
C1247      N1249   1.158       .  T
C1248      N1250   1.157       .  T
C1253      C1254   1.423       .  A
C1253      C1258   1.417       .  A
C1254      C1255   1.417       .  A
C1254      C1259   1.448       .  S
C1255      C1256   1.410       .  A
C1255      C1262   1.450       .  S
C1256      C1257   1.407       .  A
C1257      C1258   1.403       .  A
C1257      C1260   1.450       .  S
C1258      C1261   1.452       .  S
C1259      N1266   1.157   1_655  T
C1260      N1265   1.157       .  T
C1261      N1263   1.157       .  T
C1262      N1264   1.157       .  T
C1267      C1268   1.425       .  A
C1267      C1272   1.413       .  A
C1268      C1269   1.424       .  A
C1268      C1273   1.446       .  S
C1269      C1270   1.424       .  A
C1269      C1276   1.448       .  S
C1270      C1271   1.415       .  A
C1271      C1272   1.388       .  A
C1271      C1274   1.454       .  S
C1272      C1275   1.449       .  S
C1273      N1280   1.157       .  T
C1274      N1279   1.157       .  T
C1275      N1277   1.157       .  T
C1276      N1278   1.158       .  T
C1281      C1282   1.415       .  A
C1281      C1286   1.418       .  A
C1282      C1283   1.408       .  A
C1282      C1287   1.449       .  S
C1283      C1284   1.413       .  A
C1283      C1290   1.449       .  S
C1284      C1285   1.426       .  A
C1285      C1286   1.424       .  A
C1285      C1288   1.449       .  S
C1286      C1289   1.446       .  S
C1287      N1294   1.157       .  T
C1288      N1293   1.158       .  T
C1289      N1291   1.156       .  T
C1290      N1292   1.157       .  T
C1295      C1296   1.419       .  A
C1295      C1300   1.425       .  A
C1296      C1297   1.410       .  A
C1296      C1301   1.447       .  S
C1297      C1298   1.411       .  A
C1297      C1304   1.452       .  S
C1298      C1299   1.402       .  A
C1299      C1300   1.404       .  A
C1299      C1302   1.452       .  S
C1300      C1303   1.444       .  S
C1301      N1308   1.157       .  T
C1302      N1307   1.157       .  T
C1303      N1305   1.158       .  T
C1304      N1306   1.157       .  T
C1309      C1310   1.412       .  A
C1309      C1314   1.420       .  A
C1310      C1311   1.409       .  A
C1310      C1315   1.453       .  S
C1311      C1312   1.417       .  A
C1311      C1318   1.445       .  S
C1312      C1313   1.411       .  A
C1313      C1314   1.409       .  A
C1313      C1316   1.448       .  S
C1314      C1317   1.449       .  S
C1315      N1322   1.157       .  T
C1316      N1321   1.158       .  T
C1317      N1319   1.157       .  T
C1318      N1320   1.156       .  T
C1323      C1324   1.411       .  A
C1323      C1328   1.415       .  A
C1324      C1325   1.414       .  A
C1324      C1329   1.454       .  S
C1325      C1326   1.424       .  A
C1325      C1332   1.446       .  S
C1326      C1327   1.421       .  A
C1327      C1328   1.420       .  A
C1327      C1330   1.445       .  S
C1328      C1331   1.453       .  S
C1329      N1336   1.158       .  T
C1330      N1335   1.157       .  T
C1331      N1333   1.157       .  T
C1332      N1334   1.158       .  T
