geometry optimzed in LAMMPS
_audit_creation_date              2020-11-30 
_audit_creation_method            'lammps2cif' 
_symmetry_space_group_name_H-M    'P1' 
_symmetry_Int_Tables_number       1 
_symmetry_cell_setting            triclinic 
loop_ 
_symmetry_equiv_pos_as_xyz 
  x,y,z 
_cell_length_a                    48.879354803962265 
_cell_length_b                    48.98780746520257 
_cell_length_c                    30.98055601081507 
_cell_angle_alpha                 90.13433210791871 
_cell_angle_beta                  89.89527708078825 
_cell_angle_gamma                 120.2507349036608 
loop_ 
_atom_site_label 
_atom_site_type_symbol 
_atom_site_fract_x 
_atom_site_fract_y 
_atom_site_fract_z 
_atom_site_charge 
C1          C  0.35766120  0.34200832  0.25056041     0.00850
C2          C  0.34227685  0.35831395  0.25041489     0.00850
C3          C  0.46785413  0.35414937  0.25036701     0.00850
C4          C  0.43598452  0.33936883  0.25044020     0.00850
C5          C  0.46579945  0.06377531  0.25068634     0.00850
C6          C  0.43393007  0.04790153  0.25095790     0.00850
C7          C  0.36885662  0.03326913  0.32180692     0.03420
C8          C  0.40101640  0.05078993  0.31006114    -0.12730
C9          C  0.41542902  0.03499092  0.29172500     0.00920
C10         C  0.39909529  0.00195261  0.29557096    -0.11260
C11         C  0.36613941  0.98677356  0.28993063     0.03410
C12         C  0.35061427  0.00176043  0.30755875    -0.10680
H13         H  0.41379292  0.07634139  0.31228996     0.09000
H14         H  0.41107194  0.98962772  0.28483386     0.06530
H15         H  0.32498840  0.98987788  0.30799717     0.06380
C16         C  0.36828132  0.03372969  0.17926360     0.03420
C17         C  0.40001014  0.05142811  0.19362615    -0.12730
C18         C  0.41496801  0.03569215  0.21031691     0.00920
C19         C  0.39950440  0.00287887  0.20416589    -0.11260
C20         C  0.36643549  0.98680002  0.20847945     0.03410
C21         C  0.35065540  0.00143516  0.19079310    -0.10680
H22         H  0.41210674  0.07700999  0.19421913     0.09000
H23         H  0.41175476  0.99071167  0.21423744     0.06530
H24         H  0.32515163  0.98808130  0.18788807     0.06380
C25         C  0.35369455  0.46806815  0.24916015     0.00850
C26         C  0.33920303  0.43632028  0.24921636     0.00850
C27         C  0.03269822  0.11251075  0.32130572     0.03420
C28         C  0.04928396  0.09783602  0.30538170    -0.12730
C29         C  0.03230135  0.06727455  0.28792114     0.00920
C30         C  0.99944480  0.05073728  0.29445577    -0.11260
C31         C  0.48457042  0.06876003  0.29110979     0.03410
C32         C  0.00045397  0.09905924  0.30959591    -0.10680
H33         H  0.07491889  0.11081330  0.30390744     0.09000
H34         H  0.98630171  0.02633490  0.28399900     0.06530
H35         H  0.48829737  0.11230597  0.31249685     0.06380
C36         C  0.03127165  0.11217534  0.17664332     0.03420
C37         C  0.00017237  0.10013062  0.19223767    -0.12730
C38         C  0.48409495  0.06950274  0.20964519     0.00920
C39         C  0.99781734  0.05059725  0.20316174    -0.11260
C40         C  0.03093730  0.06619291  0.20629819     0.03410
C41         C  0.04766659  0.09631981  0.18761951    -0.10680
H42         H  0.48932695  0.11471541  0.19258600     0.09000
H43         H  0.98458658  0.02624310  0.21369873     0.06530
H44         H  0.07321171  0.10822613  0.18468018     0.06380
C45         C  0.04376659  0.06021209  0.24684027     0.00850
C46         C  0.06007760  0.04479368  0.24670122     0.00850
C47         C  0.11197960  0.03257019  0.32126701     0.03420
C48         C  0.09692894  0.99989656  0.31146623    -0.12730
C49         C  0.06667913  0.48480401  0.29276054     0.00920
C50         C  0.04973384  0.00085271  0.29521229    -0.11260
C51         C  0.06737816  0.03348247  0.28760864     0.03410
C52         C  0.09837159  0.04976571  0.30401245    -0.10680
H53         H  0.10903895  0.48670750  0.31548952     0.09000
H54         H  0.02526247  0.98833263  0.28479665     0.06530
H55         H  0.11241961  0.07518750  0.30057726     0.06380
C56         C  0.36971351  0.29007110  0.32297846     0.03420
C57         C  0.35303573  0.30485369  0.30813521    -0.12730
C58         C  0.36970490  0.33548519  0.29118170     0.00920
C59         C  0.40268503  0.35199503  0.29628971    -0.11260
C60         C  0.41742599  0.33394717  0.29143066     0.03410
C61         C  0.40182807  0.30359230  0.30989813    -0.10680
H62         H  0.32743311  0.29169687  0.30619361     0.09000
H63         H  0.41560153  0.37636246  0.28572890     0.06530
H64         H  0.41412317  0.29045454  0.31161757     0.06380
Fe65       Fe  0.33062963  0.14181022  0.99805973     1.65780
Fe66       Fe  0.26013267  0.14064767  0.50098699     1.73250
Fe67       Fe  0.26074267  0.07125050  0.49853974     1.54410
O68         O  0.29070694  0.06817031  0.45456540    -0.81390
O69         O  0.23178732  0.11409451  0.05185790    -0.79690
O70         O  0.33329190  0.11606222  0.44719042    -0.83890
O71         O  0.33427866  0.11226316  0.04193296    -0.78750
O72         O  0.23215181  0.06867121  0.44756779    -0.80520
O73         O  0.28996628  0.17342348  0.04532959    -0.83270
C74         C  0.31594242  0.08581969  0.05954424     0.97500
C75         C  0.31698688  0.08711790  0.43713064     1.04940
O76         O  0.28387289  0.11792678  0.49916132    -1.12250
O77         O  0.28574509  0.17018595  0.45065653    -0.74680
O78         O  0.33320895  0.17424777  0.45350024    -0.78170
O79         O  0.28689683  0.06892079  0.04943846    -0.78860
C80         C  0.31419737  0.18207993  0.43784941     0.96400
O81         O  0.33399529  0.17075564  0.04910450    -0.76820
O82         O  0.22695949  0.11093434  0.45663467    -0.82010
C83         C  0.21931011  0.08502381  0.06122259     0.99020
C84         C  0.21949441  0.08501745  0.43789133     1.04940
O85         O  0.22725274  0.06701476  0.04257216    -0.77650
C86         C  0.31697899  0.18212116  0.06141588     1.03240
C87         C  0.37027533  0.28960573  0.17836225     0.03420
C88         C  0.35322440  0.30401487  0.19363138    -0.12730
C89         C  0.36962832  0.33491794  0.21011994     0.00920
C90         C  0.40256767  0.35173125  0.20465724    -0.11260
C91         C  0.41764973  0.33402610  0.20941180     0.03410
C92         C  0.40250014  0.30373544  0.19085380    -0.10680
H93         H  0.32765488  0.29051819  0.19602830     0.09000
H94         H  0.41530092  0.37616708  0.21505451     0.06530
H95         H  0.41528653  0.29109798  0.18875663     0.06380
C96         C  0.11229266  0.03150553  0.17855612     0.03420
C97         C  0.09600517  0.04792700  0.18765248    -0.12730
C98         C  0.06568640  0.03163758  0.20612814     0.00920
C99         C  0.04977676  0.99855953  0.20373558    -0.11260
C100        C  0.06833576  0.98464594  0.21124075     0.03410
C101        C  0.09933131  0.00045450  0.19490893    -0.10680
H102        H  0.10690512  0.07309298  0.18278363     0.09000
H103        H  0.02530158  0.98572711  0.21415556     0.06530
H104        H  0.11385821  0.98959773  0.19738925     0.06380
C105        C  0.03420905  0.36884568  0.32095832     0.03420
C106        C  0.00255634  0.35092791  0.30620326    -0.12730
C107        C  0.98685334  0.36627470  0.29082941     0.00920
C108        C  0.00182168  0.39903251  0.29721779    -0.11260
C109        C  0.03487618  0.41562875  0.29290540     0.03410
C110        C  0.05111290  0.40144708  0.31054099    -0.10680
H111        H  0.99105314  0.32542509  0.30394596     0.09000
H112        H  0.98922738  0.41086601  0.28716644     0.06530
H113        H  0.07646884  0.41562105  0.31392203     0.06380
C114        C  0.03399436  0.36924373  0.17992793     0.03420
C115        C  0.00191750  0.35147905  0.19283323    -0.12730
C116        C  0.98676633  0.36693048  0.20989822     0.00920
C117        C  0.00249959  0.39987605  0.20548904    -0.11260
C118        C  0.03543596  0.41566437  0.21114496     0.03410
C119        C  0.05153502  0.40123383  0.19339169    -0.10680
H120        H  0.98966909  0.32588681  0.19242907     0.09000
H121        H  0.99012746  0.41185732  0.21604217     0.06530
H122        H  0.07709100  0.41451715  0.19177362     0.06380
Fe123      Fe  0.07172968  0.25944076  0.50026625     1.65780
Fe124      Fe  0.14188575  0.33001811  0.00026299     1.73250
Fe125      Fe  0.14199692  0.25998607  0.00063144     1.54410
O126        O  0.11315383  0.22770702  0.04621973    -0.81390
O127        O  0.17240315  0.33322555  0.45148604    -0.79690
O128        O  0.06857772  0.22961369  0.04954004    -0.83890
O129        O  0.06872792  0.22775141  0.45352053    -0.78750
O130        O  0.17171632  0.28712642  0.04938670    -0.80520
O131        O  0.11343581  0.33284820  0.45304352    -0.83270
C132        C  0.08723356  0.21897813  0.43841712     0.97500
C133        C  0.08592614  0.21870144  0.06173541     1.04940
O134        O  0.11854649  0.28317439  0.00041622    -1.12250
O135        O  0.11448999  0.33304536  0.04902818    -0.74680
O136        O  0.06825399  0.28799464  0.04625052    -0.78170
O137        O  0.11533429  0.22988075  0.45180368    -0.78860
C138        C  0.08614801  0.31540233  0.06158604     0.96400
O139        O  0.06879324  0.28622792  0.45153942    -0.76820
O140        O  0.17346354  0.33347870  0.04744323    -0.82010
C141        C  0.18344110  0.31590765  0.43936533     0.99020
C142        C  0.18244464  0.31521263  0.06259741     1.04940
O143        O  0.17417403  0.28874515  0.45499975    -0.77650
C144        C  0.08599331  0.31427452  0.43806659     1.03240
C145        C  0.28966521  0.37066292  0.32136505     0.03420
C146        C  0.30497129  0.35400029  0.30835662    -0.12730
C147        C  0.33562536  0.37058272  0.29097618     0.00920
C148        C  0.35194175  0.40353006  0.29555826    -0.11260
C149        C  0.33371995  0.41804306  0.29022301     0.03410
C150        C  0.30321236  0.40255753  0.30826486    -0.10680
H151        H  0.29230532  0.32839974  0.30881200     0.09000
H152        H  0.37641198  0.41646210  0.28515140     0.06530
H153        H  0.29014500  0.41492217  0.31018932     0.06380
C154        C  0.29022325  0.37017413  0.17755066     0.03420
C155        C  0.30380510  0.40224959  0.18999921    -0.12730
C156        C  0.33416297  0.41783922  0.20842863     0.00920
C157        C  0.35223014  0.40305202  0.20414217    -0.11260
C158        C  0.33565679  0.37017680  0.20963308     0.03410
C159        C  0.30498668  0.35348931  0.19246396    -0.10680
H160        H  0.29060773  0.41448428  0.18786854     0.09000
H161        H  0.37665484  0.41601135  0.21469364     0.06530
H162        H  0.29188829  0.32790745  0.19376826     0.06380
C163        C  0.04745020  0.43439820  0.25214333     0.00850
C164        C  0.06182831  0.46617225  0.25217778     0.00850
C165        C  0.26043314  0.35469263  0.34814951    -0.05180
C166        C  0.25948834  0.33527749  0.38211057    -0.32610
C167        C  0.23427132  0.32210805  0.41120874     0.36640
C168        C  0.20915416  0.32821599  0.40698546    -0.05540
C169        C  0.20952868  0.34701543  0.37258335    -0.32510
C170        C  0.23461972  0.35978626  0.34283153     0.36550
H171        H  0.27905911  0.33118175  0.38722107     0.16920
O172        O  0.23510624  0.30430425  0.44476960    -0.60000
H173        H  0.19017372  0.35157884  0.36855645     0.16930
O174        O  0.23336623  0.37684070  0.30864139    -0.60100
H175        H  0.22598436  0.36198491  0.28384703     0.43930
H176        H  0.24545901  0.31943334  0.46887758     0.43880
C177        C  0.26073908  0.35394353  0.15126527    -0.05180
C178        C  0.23687478  0.36190184  0.15540916    -0.32610
C179        C  0.21082244  0.34912064  0.12734142     0.36640
C180        C  0.20793566  0.32750944  0.09512554    -0.05540
C181        C  0.23099309  0.31862004  0.09207655    -0.32510
C182        C  0.25739771  0.33196653  0.11906988     0.36550
H183        H  0.23840031  0.37823539  0.18016093     0.16920
O184        O  0.18850990  0.35809513  0.13147256    -0.60000
H185        H  0.22940060  0.30236478  0.06706994     0.16930
O186        O  0.28052622  0.32439657  0.11212330    -0.60100
H187        H  0.29583149  0.34085474  0.09219532     0.43930
H188        H  0.17174859  0.34178624  0.15010129     0.43820
C189        C  0.07277569  0.32765747  0.09408020    -0.05180
C190        C  0.09174585  0.34780548  0.12738995    -0.32610
C191        C  0.07942434  0.36058601  0.15706549     0.36640
C192        C  0.04789150  0.35408195  0.15279174    -0.05540
C193        C  0.02901048  0.33350222  0.11976635    -0.32510
C194        C  0.04105328  0.32032537  0.09084273     0.36550
H195        H  0.11610984  0.35342271  0.13064694     0.16920
O196        O  0.09834261  0.37895689  0.19019426    -0.60000
H197        H  0.00488496  0.32834445  0.11525591     0.16930
O198        O  0.02185581  0.30129474  0.05832262    -0.60100
H199        H  0.02450427  0.31591553  0.03449731     0.43930
H200        H  0.09197263  0.36471317  0.21554921     0.43880
C201        C  0.07283120  0.32615744  0.40487092    -0.05180
C202        C  0.09293600  0.34971235  0.37572675    -0.32610
C203        C  0.08096379  0.36298737  0.34642408     0.36640
C204        C  0.04832201  0.35322945  0.34678155    -0.05540
C205        C  0.02830771  0.32885389  0.37515925    -0.32510
C206        C  0.04012171  0.31523312  0.40352423     0.36550
H207        H  0.11806282  0.35783499  0.37554606     0.16920
O208        O  0.10111873  0.38426649  0.31651796    -0.60000
H209        H  0.00326200  0.32092940  0.37679731     0.16930
O210        O  0.01946132  0.29202563  0.43102294    -0.60100
H211        H  0.01711945  0.30339877  0.45596952     0.43930
H212        H  0.11652258  0.40305561  0.33328575     0.43880
C213        C  0.14193577  0.04574534  0.15241989    -0.05180
C214        C  0.14566277  0.02630205  0.12243965    -0.32610
C215        C  0.17107731  0.03856854  0.09366158     0.36640
C216        C  0.19372302  0.07114567  0.09406834    -0.05540
C217        C  0.19079807  0.09054057  0.12502779    -0.32510
C218        C  0.16531574  0.07812401  0.15424233     0.36550
H219        H  0.12801996  0.00144079  0.12001056     0.16920
O220        O  0.17280569  0.01848154  0.06429015    -0.60000
H221        H  0.20830860  0.11548116  0.12661709     0.16930
O222        O  0.16431485  0.09751656  0.18546743    -0.60100
H223        H  0.16127920  0.11343901  0.16979943     0.43930
H224        H  0.16040243  0.01851849  0.03900927     0.43880
C225        C  0.32926757  0.20762843  0.09433877    -0.05180
C226        C  0.31798903  0.22889542  0.09417710    -0.32610
C227        C  0.33041478  0.25489695  0.12198266     0.36640
C228        C  0.35437584  0.25996946  0.15190687    -0.05540
C229        C  0.36472147  0.23779341  0.15328643    -0.32510
C230        C  0.35283718  0.21222461  0.12436924     0.36550
H231        H  0.30028365  0.22625569  0.07090613     0.16920
O232        O  0.32063107  0.27650670  0.11702441    -0.60000
H233        H  0.38235649  0.24023936  0.17642447     0.16930
O234        O  0.36414495  0.19168704  0.12621042    -0.60100
H235        H  0.38421439  0.20203124  0.10954893     0.43930
H236        H  0.29872781  0.26609301  0.12861632     0.43880
C237        C  0.32623521  0.20737481  0.40499973    -0.05180
C238        C  0.31619920  0.22954166  0.40654337    -0.32610
C239        C  0.32966811  0.25602074  0.37961512     0.36640
C240        C  0.35320823  0.26043106  0.34914570    -0.05540
C241        C  0.36219669  0.23729599  0.34640443    -0.32510
C242        C  0.34938119  0.21133241  0.37451966     0.36550
H243        H  0.29895457  0.22728140  0.43044076     0.16920
O244        O  0.32143353  0.27869715  0.38598441    -0.60000
H245        H  0.37947524  0.23931370  0.32284682     0.16930
O246        O  0.35930835  0.18971653  0.37151354    -0.60100
H247        H  0.37968999  0.19930586  0.38738097     0.43930
H248        H  0.29946798  0.26933787  0.37494935     0.43880
C249        C  0.19405950  0.07321287  0.40477579    -0.05180
C250        C  0.17270629  0.08446944  0.40535603    -0.32610
C251        C  0.14677453  0.07232115  0.37738167     0.36640
C252        C  0.14175666  0.04856114  0.34722890    -0.05540
C253        C  0.16399999  0.03832438  0.34524315    -0.32510
C254        C  0.18963924  0.05007275  0.37400866     0.36550
H255        H  0.17524474  0.10195392  0.42895990     0.16920
O256        O  0.12513246  0.08212506  0.38230644    -0.60000
H257        H  0.16142623  0.02079973  0.32175944     0.16930
O258        O  0.21034186  0.03895934  0.37139372    -0.60100
H259        H  0.19999495  0.01868782  0.38742681     0.43930
H260        H  0.13541710  0.10373981  0.36999481     0.43880
C261        C  0.07301513  0.19255221  0.09276797    -0.05180
C262        C  0.06696605  0.16294311  0.07826584    -0.32610
C263        C  0.05343572  0.13688851  0.10573748     0.36640
C264        C  0.04630725  0.14030713  0.14872398    -0.05540
C265        C  0.05243390  0.16999425  0.16352100    -0.32510
C266        C  0.06591004  0.19619150  0.13570376     0.36550
H267        H  0.07206108  0.15986867  0.04511414     0.16920
O268        O  0.04650905  0.10789047  0.08999632    -0.60000
H269        H  0.04689291  0.17281173  0.19652540     0.16930
O270        O  0.07218373  0.22514472  0.15068452    -0.60100
H271        H  0.09456334  0.23585439  0.16036472     0.43930
H272        H  0.02408962  0.09763158  0.08057495     0.43880
C273        C  0.04903917  0.14166577  0.34813278    -0.05180
C274        C  0.04181228  0.16596451  0.34384572    -0.32610
C275        C  0.05452835  0.19170826  0.37242398     0.36640
C276        C  0.07520598  0.19374471  0.40548779    -0.05540
C277        C  0.08338414  0.17021350  0.40875013    -0.32510
C278        C  0.07016188  0.14416137  0.38105185     0.36550
H279        H  0.02607001  0.16496669  0.31857177     0.16920
O280        O  0.04643990  0.21460213  0.36792037    -0.60000
H281        H  0.09895770  0.17120731  0.43433997     0.16930
O282        O  0.07692822  0.12052425  0.38794019    -0.60100
H283        H  0.05982943  0.10521712  0.40715243     0.43930
H284        H  0.06345937  0.23122802  0.34993594     0.43880
C285        C  0.35467169  0.04890019  0.15205484    -0.05180
C286        C  0.37339818  0.06862080  0.11836560    -0.32610
C287        C  0.36124254  0.08124518  0.08886997     0.36640
C288        C  0.32951650  0.07401948  0.09220432    -0.05540
C289        C  0.31077744  0.05474720  0.12626872    -0.32510
C290        C  0.32323069  0.04255212  0.15642965     0.36550
H291        H  0.39741827  0.07342965  0.11382141     0.16920
O292        O  0.38003599  0.09891731  0.05516829    -0.60000
H293        H  0.28646651  0.04927931  0.12969133     0.16930
O294        O  0.30450783  0.02466341  0.18998477    -0.60100
H295        H  0.30635734  0.04012002  0.21216201     0.43930
H296        H  0.39349367  0.12047002  0.06711096     0.43880
C297        C  0.33032115  0.07410647  0.40663498    -0.05180
C298        C  0.32625860  0.07514265  0.36196078    -0.32610
C299        C  0.33865421  0.06181786  0.33338980     0.36640
C300        C  0.35508983  0.04739532  0.34980217    -0.05540
C301        C  0.35914143  0.04656022  0.39438381    -0.32510
C302        C  0.34670053  0.05961035  0.42279181     0.36550
H303        H  0.31342357  0.08609491  0.34940122     0.16920
O304        O  0.33437212  0.06269885  0.28981307    -0.60000
H305        H  0.37192527  0.03560301  0.40717059     0.16930
O306        O  0.35106010  0.05855191  0.46636921    -0.60100
H307        H  0.33237684  0.03867452  0.47642408     0.43930
H308        H  0.35398633  0.08146340  0.27925525     0.43880
C309        C  0.35766119  0.34200829  0.75056040     0.00850
C310        C  0.34227685  0.35831393  0.75041488     0.00850
C311        C  0.46785413  0.35414937  0.75036701     0.00850
C312        C  0.43598452  0.33936883  0.75044020     0.00850
C313        C  0.46579944  0.06377531  0.75068633     0.00850
C314        C  0.43393005  0.04790148  0.75095791     0.00850
C315        C  0.36885667  0.03326917  0.82180693     0.03420
C316        C  0.40101647  0.05078991  0.81006123    -0.12730
C317        C  0.41542902  0.03499086  0.79172502     0.00920
C318        C  0.39909524  0.00195255  0.79557094    -0.11260
C319        C  0.36613936  0.98677357  0.78993057     0.03410
C320        C  0.35061427  0.00176050  0.80755866    -0.10680
H321        H  0.41379304  0.07634137  0.81229012     0.09000
H322        H  0.41107184  0.98962763  0.78483383     0.06530
H323        H  0.32498840  0.98987800  0.80799702     0.06380
C324        C  0.36828132  0.03372971  0.67926358     0.03420
C325        C  0.40001014  0.05142810  0.69362616    -0.12730
C326        C  0.41496799  0.03569212  0.71031692     0.00920
C327        C  0.39950436  0.00287884  0.70416587    -0.11260
C328        C  0.36643545  0.98680001  0.70847941     0.03410
C329        C  0.35065538  0.00143517  0.69079306    -0.10680
H330        H  0.41210676  0.07700998  0.69421915     0.09000
H331        H  0.41175470  0.99071162  0.71423742     0.06530
H332        H  0.32515162  0.98808132  0.68788800     0.06380
C333        C  0.35369455  0.46806814  0.74916014     0.00850
C334        C  0.33920304  0.43632027  0.74921635     0.00850
C335        C  0.03269823  0.11251076  0.82130570     0.03420
C336        C  0.04928397  0.09783605  0.80538168    -0.12730
C337        C  0.03230137  0.06727458  0.78792112     0.00920
C338        C  0.99944483  0.05073729  0.79445576    -0.11260
C339        C  0.48457042  0.06876004  0.79110978     0.03410
C340        C  0.00045397  0.09905924  0.80959590    -0.10680
H341        H  0.07491890  0.11081333  0.80390741     0.09000
H342        H  0.98630174  0.02633491  0.78399899     0.06530
H343        H  0.48829737  0.11230598  0.81249683     0.06380
C344        C  0.03127165  0.11217536  0.67664333     0.03420
C345        C  0.00017236  0.10013062  0.69223767    -0.12730
C346        C  0.48409494  0.06950274  0.70964518     0.00920
C347        C  0.99781736  0.05059726  0.70316173    -0.11260
C348        C  0.03093732  0.06619293  0.70629818     0.03410
C349        C  0.04766659  0.09631984  0.68761950    -0.10680
H350        H  0.48932694  0.11471541  0.69258601     0.09000
H351        H  0.98458660  0.02624311  0.71369872     0.06530
H352        H  0.07321172  0.10822616  0.68468016     0.06380
C353        C  0.04376661  0.06021212  0.74684026     0.00850
C354        C  0.06007760  0.04479369  0.74670121     0.00850
C355        C  0.11197960  0.03257021  0.82126700     0.03420
C356        C  0.09692894  0.99989658  0.81146622    -0.12730
C357        C  0.06667913  0.48480401  0.79276053     0.00920
C358        C  0.04973384  0.00085272  0.79521227    -0.11260
C359        C  0.06737815  0.03348248  0.78760862     0.03410
C360        C  0.09837159  0.04976572  0.80401244    -0.10680
H361        H  0.10903895  0.48670750  0.81548951     0.09000
H362        H  0.02526247  0.98833263  0.78479664     0.06530
H363        H  0.11241960  0.07518751  0.80057725     0.06380
C364        C  0.36971352  0.29007108  0.82297845     0.03420
C365        C  0.35303572  0.30485366  0.80813520    -0.12730
C366        C  0.36970488  0.33548516  0.79118169     0.00920
C367        C  0.40268501  0.35199501  0.79628971    -0.11260
C368        C  0.41742599  0.33394717  0.79143066     0.03410
C369        C  0.40182808  0.30359229  0.80989813    -0.10680
H370        H  0.32743311  0.29169683  0.80619360     0.09000
H371        H  0.41560151  0.37636244  0.78572890     0.06530
H372        H  0.41412319  0.29045455  0.81161758     0.06380
Fe373      Fe  0.33062963  0.14181023  0.49805965     1.65780
Fe374      Fe  0.26013266  0.14064766  0.00098700     1.73250
Fe375      Fe  0.26074265  0.07125048  0.99853971     1.54410
O376        O  0.29070683  0.06817031  0.95456518    -0.81390
O377        O  0.23178741  0.11409458  0.55185799    -0.79690
O378        O  0.33329198  0.11606215  0.94719067    -0.83890
O379        O  0.33427868  0.11226310  0.54193274    -0.78750
O380        O  0.23215171  0.06867119  0.94756787    -0.80520
O381        O  0.28996636  0.17342355  0.54532946    -0.83270
C382        C  0.31594242  0.08581970  0.55954420     0.97500
C383        C  0.31698687  0.08711788  0.93713065     1.04940
O384        O  0.28387289  0.11792677  0.99916133    -1.12250
O385        O  0.28574516  0.17018602  0.95065665    -0.74680
O386        O  0.33320897  0.17424769  0.95350018    -0.78170
O387        O  0.28689679  0.06892087  0.54943862    -0.78860
C388        C  0.31419742  0.18207992  0.93784944     0.96400
O389        O  0.33399529  0.17075557  0.54910453    -0.76820
O390        O  0.22695955  0.11093442  0.95663457    -0.82010
C391        C  0.21931011  0.08502385  0.56122258     0.99020
C392        C  0.21949439  0.08501748  0.93789132     1.04940
O393        O  0.22725268  0.06701478  0.54257206    -0.77650
C394        C  0.31697904  0.18212116  0.56141583     1.03240
C395        C  0.37027534  0.28960572  0.67836224     0.03420
C396        C  0.35322440  0.30401484  0.69363137    -0.12730
C397        C  0.36962831  0.33491792  0.71011993     0.00920
C398        C  0.40256766  0.35173123  0.70465723    -0.11260
C399        C  0.41764974  0.33402609  0.70941180     0.03410
C400        C  0.40250016  0.30373543  0.69085379    -0.10680
H401        H  0.32765488  0.29051816  0.69602828     0.09000
H402        H  0.41530090  0.37616707  0.71505450     0.06530
H403        H  0.41528654  0.29109798  0.68875663     0.06380
C404        C  0.11229267  0.03150554  0.67855611     0.03420
C405        C  0.09600517  0.04792701  0.68765247    -0.12730
C406        C  0.06568640  0.03163759  0.70612812     0.00920
C407        C  0.04977677  0.99855954  0.70373556    -0.11260
C408        C  0.06833577  0.98464595  0.71124074     0.03410
C409        C  0.09933132  0.00045451  0.69490892    -0.10680
H410        H  0.10690513  0.07309299  0.68278363     0.09000
H411        H  0.02530159  0.98572712  0.71415554     0.06530
H412        H  0.11385821  0.98959774  0.69738923     0.06380
C413        C  0.03420904  0.36884567  0.82095833     0.03420
C414        C  0.00255633  0.35092790  0.80620327    -0.12730
C415        C  0.98685334  0.36627470  0.79082941     0.00920
C416        C  0.00182168  0.39903250  0.79721779    -0.11260
C417        C  0.03487619  0.41562874  0.79290540     0.03410
C418        C  0.05111290  0.40144706  0.81054099    -0.10680
H419        H  0.99105313  0.32542508  0.80394597     0.09000
H420        H  0.98922739  0.41086601  0.78716644     0.06530
H421        H  0.07646884  0.41562104  0.81392203     0.06380
C422        C  0.03399436  0.36924371  0.67992793     0.03420
C423        C  0.00191749  0.35147904  0.69283323    -0.12730
C424        C  0.98676633  0.36693048  0.70989822     0.00920
C425        C  0.00249960  0.39987604  0.70548904    -0.11260
C426        C  0.03543597  0.41566437  0.71114496     0.03410
C427        C  0.05153502  0.40123381  0.69339169    -0.10680
H428        H  0.98966909  0.32588680  0.69242908     0.09000
H429        H  0.99012746  0.41185732  0.71604217     0.06530
H430        H  0.07709100  0.41451714  0.69177362     0.06380
Fe431      Fe  0.07172968  0.25944077  0.00026627     1.65780
Fe432      Fe  0.14188575  0.33001810  0.50026299     1.73250
Fe433      Fe  0.14199692  0.25998607  0.50063146     1.54410
O434        O  0.11315386  0.22770705  0.54621981    -0.81390
O435        O  0.17240313  0.33322556  0.95148600    -0.79690
O436        O  0.06857769  0.22961364  0.54953996    -0.83890
O437        O  0.06872792  0.22775137  0.95352061    -0.78750
O438        O  0.17171635  0.28712645  0.54938667    -0.80520
O439        O  0.11343578  0.33284820  0.95304356    -0.83270
C440        C  0.08723357  0.21897814  0.93841712     0.97500
C441        C  0.08592614  0.21870143  0.56173541     1.04940
O442        O  0.11854648  0.28317439  0.50041622    -1.12250
O443        O  0.11448996  0.33304536  0.54902814    -0.74680
O444        O  0.06825398  0.28799461  0.54625054    -0.78170
O445        O  0.11533432  0.22988080  0.95180361    -0.78860
C446        C  0.08614800  0.31540231  0.56158604     0.96400
O447        O  0.06879324  0.28622789  0.95153940    -0.76820
O448        O  0.17346352  0.33347870  0.54744326    -0.82010
C449        C  0.18344111  0.31590767  0.93936533     0.99020
C450        C  0.18244464  0.31521265  0.56259741     1.04940
O451        O  0.17417406  0.28874519  0.95499978    -0.77650
C452        C  0.08599330  0.31427451  0.93806660     1.03240
C453        C  0.28966521  0.37066292  0.82136505     0.03420
C454        C  0.30497129  0.35400028  0.80835662    -0.12730
C455        C  0.33562536  0.37058271  0.79097618     0.00920
C456        C  0.35194176  0.40353005  0.79555825    -0.11260
C457        C  0.33371996  0.41804306  0.79022300     0.03410
C458        C  0.30321237  0.40255753  0.80826486    -0.10680
H459        H  0.29230531  0.32839974  0.80881200     0.09000
H460        H  0.37641199  0.41646208  0.78515139     0.06530
H461        H  0.29014502  0.41492218  0.81018932     0.06380
C462        C  0.29022326  0.37017413  0.67755066     0.03420
C463        C  0.30380511  0.40224959  0.68999920    -0.12730
C464        C  0.33416299  0.41783921  0.70842862     0.00920
C465        C  0.35223015  0.40305201  0.70414216    -0.11260
C466        C  0.33565679  0.37017679  0.70963307     0.03410
C467        C  0.30498668  0.35348930  0.69246395    -0.10680
H468        H  0.29060775  0.41448429  0.68786854     0.09000
H469        H  0.37665484  0.41601134  0.71469364     0.06530
H470        H  0.29188829  0.32790744  0.69376824     0.06380
C471        C  0.04745020  0.43439819  0.75214333     0.00850
C472        C  0.06182831  0.46617224  0.75217778     0.00850
C473        C  0.26043316  0.35469264  0.84814951    -0.05180
C474        C  0.25948835  0.33527751  0.88211057    -0.32610
C475        C  0.23427133  0.32210807  0.91120875     0.36640
C476        C  0.20915417  0.32821601  0.90698547    -0.05540
C477        C  0.20952870  0.34701545  0.87258335    -0.32510
C478        C  0.23461973  0.35978627  0.84283153     0.36550
H479        H  0.27905911  0.33118176  0.88722107     0.16920
O480        O  0.23510625  0.30430428  0.94476961    -0.60000
H481        H  0.19017374  0.35157886  0.86855645     0.16930
O482        O  0.23336625  0.37684071  0.80864139    -0.60100
H483        H  0.22598437  0.36198492  0.78384704     0.43930
H484        H  0.24545903  0.31943337  0.96887758     0.43880
C485        C  0.26073909  0.35394353  0.65126526    -0.05180
C486        C  0.23687479  0.36190184  0.65540916    -0.32610
C487        C  0.21082244  0.34912064  0.62734143     0.36640
C488        C  0.20793567  0.32750946  0.59512554    -0.05540
C489        C  0.23099310  0.31862007  0.59207652    -0.32510
C490        C  0.25739772  0.33196654  0.61906986     0.36550
H491        H  0.23840031  0.37823539  0.68016094     0.16920
O492        O  0.18850990  0.35809513  0.63147259    -0.60000
H493        H  0.22940061  0.30236481  0.56706990     0.16930
O494        O  0.28052624  0.32439659  0.61212326    -0.60100
H495        H  0.29583151  0.34085477  0.59219529     0.43930
H496        H  0.17174859  0.34178624  0.65010131     0.43820
C497        C  0.07277568  0.32765744  0.59408021    -0.05180
C498        C  0.09174584  0.34780546  0.62738995    -0.32610
C499        C  0.07942434  0.36058599  0.65706548     0.36640
C500        C  0.04789149  0.35408193  0.65279174    -0.05540
C501        C  0.02901046  0.33350219  0.61976636    -0.32510
C502        C  0.04105326  0.32032534  0.59084274     0.36550
H503        H  0.11610983  0.35342269  0.63064692     0.16920
O504        O  0.09834261  0.37895688  0.69019424    -0.60000
H505        H  0.00488495  0.32834442  0.61525593     0.16930
O506        O  0.02185579  0.30129470  0.55832264    -0.60100
H507        H  0.02450424  0.31591548  0.53449733     0.43930
H508        H  0.09197264  0.36471317  0.71554920     0.43880
C509        C  0.07283119  0.32615743  0.90487093    -0.05180
C510        C  0.09293599  0.34971233  0.87572675    -0.32610
C511        C  0.08096378  0.36298735  0.84642408     0.36640
C512        C  0.04832200  0.35322944  0.84678155    -0.05540
C513        C  0.02830770  0.32885388  0.87515927    -0.32510
C514        C  0.04012169  0.31523311  0.90352424     0.36550
H515        H  0.11806281  0.35783496  0.87554606     0.16920
O516        O  0.10111872  0.38426647  0.81651796    -0.60000
H517        H  0.00326199  0.32092939  0.87679733     0.16930
O518        O  0.01946131  0.29202562  0.93102296    -0.60100
H519        H  0.01711944  0.30339877  0.95596953     0.43930
H520        H  0.11652258  0.40305559  0.83328575     0.43880
C521        C  0.14193577  0.04574536  0.65241988    -0.05180
C522        C  0.14566275  0.02630208  0.62243960    -0.32610
C523        C  0.17107729  0.03856857  0.59366152     0.36640
C524        C  0.19372301  0.07114570  0.59406831    -0.05540
C525        C  0.19079808  0.09054058  0.62502780    -0.32510
C526        C  0.16531576  0.07812402  0.65424235     0.36550
H527        H  0.12801993  0.00144082  0.62001048     0.16920
O528        O  0.17280565  0.01848158  0.56429005    -0.60000
H529        H  0.20830862  0.11548118  0.62661714     0.16930
O530        O  0.16431488  0.09751655  0.68546749    -0.60100
H531        H  0.16127923  0.11343902  0.66979952     0.43930
H532        H  0.16040239  0.01851856  0.53900919     0.43880
C533        C  0.32926763  0.20762844  0.59433873    -0.05180
C534        C  0.31798908  0.22889543  0.59417704    -0.32610
C535        C  0.33041482  0.25489695  0.62198261     0.36640
C536        C  0.35437587  0.25996945  0.65190685    -0.05540
C537        C  0.36472149  0.23779340  0.65328641    -0.32510
C538        C  0.35283721  0.21222461  0.62436922     0.36550
H539        H  0.30028372  0.22625571  0.57090605     0.16920
O540        O  0.32063111  0.27650670  0.61702436    -0.60000
H541        H  0.38235651  0.24023935  0.67642447     0.16930
O542        O  0.36414498  0.19168703  0.62621041    -0.60100
H543        H  0.38421442  0.20203123  0.60954893     0.43930
H544        H  0.29872785  0.26609302  0.62861626     0.43880
C545        C  0.32623526  0.20737480  0.90499975    -0.05180
C546        C  0.31619925  0.22954165  0.90654339    -0.32610
C547        C  0.32966814  0.25602072  0.87961513     0.36640
C548        C  0.35320825  0.26043105  0.84914570    -0.05540
C549        C  0.36219673  0.23729598  0.84640443    -0.32510
C550        C  0.34938123  0.21133241  0.87451967     0.36550
H551        H  0.29895462  0.22728139  0.93044079     0.16920
O552        O  0.32143355  0.27869713  0.88598442    -0.60000
H553        H  0.37947527  0.23931370  0.82284682     0.16930
O554        O  0.35930840  0.18971653  0.87151354    -0.60100
H555        H  0.37969005  0.19930587  0.88738097     0.43930
H556        H  0.29946800  0.26933784  0.87494936     0.43880
C557        C  0.19405949  0.07321291  0.90477577    -0.05180
C558        C  0.17270628  0.08446948  0.90535601    -0.32610
C559        C  0.14677452  0.07232117  0.87738165     0.36640
C560        C  0.14175666  0.04856116  0.84722888    -0.05540
C561        C  0.16399999  0.03832441  0.84524314    -0.32510
C562        C  0.18963924  0.05007279  0.87400864     0.36550
H563        H  0.17524474  0.10195395  0.92895988     0.16920
O564        O  0.12513244  0.08212508  0.88230643    -0.60000
H565        H  0.16142623  0.02079976  0.82175943     0.16930
O566        O  0.21034187  0.03895939  0.87139371    -0.60100
H567        H  0.19999496  0.01868786  0.88742678     0.43930
H568        H  0.13541708  0.10373983  0.86999479     0.43880
C569        C  0.07301511  0.19255220  0.59276796    -0.05180
C570        C  0.06696579  0.16294304  0.57826573    -0.32610
C571        C  0.05343545  0.13688845  0.60573738     0.36640
C572        C  0.04630722  0.14030713  0.64872397    -0.05540
C573        C  0.05243411  0.16999431  0.66352109    -0.32510
C574        C  0.06591025  0.19619156  0.63570384     0.36550
H575        H  0.07206064  0.15986857  0.54511396     0.16920
O576        O  0.04650857  0.10789036  0.58999615    -0.60000
H577        H  0.04689330  0.17281184  0.69652557     0.16930
O578        O  0.07218418  0.22514483  0.65068469    -0.60100
H579        H  0.09456383  0.23585439  0.66036471     0.43930
H580        H  0.02408910  0.09763157  0.58057497     0.43880
C581        C  0.04903917  0.14166578  0.84813277    -0.05180
C582        C  0.04181226  0.16596451  0.84384574    -0.32610
C583        C  0.05452833  0.19170826  0.87242401     0.36640
C584        C  0.07520598  0.19374472  0.90548779    -0.05540
C585        C  0.08338416  0.17021352  0.90875011    -0.32510
C586        C  0.07016190  0.14416139  0.88105183     0.36550
H587        H  0.02606998  0.16496669  0.81857180     0.16920
O588        O  0.04643986  0.21460212  0.86792042    -0.60000
H589        H  0.09895772  0.17120734  0.93433994     0.16930
O590        O  0.07692825  0.12052428  0.88794015    -0.60100
H591        H  0.05982946  0.10521714  0.90715239     0.43930
H592        H  0.06345933  0.23122802  0.84993598     0.43880
C593        C  0.35467171  0.04890022  0.65205482    -0.05180
C594        C  0.37339820  0.06862082  0.61836558    -0.32610
C595        C  0.36124256  0.08124520  0.58886994     0.36640
C596        C  0.32951652  0.07401950  0.59220428    -0.05540
C597        C  0.31077746  0.05474723  0.62626869    -0.32510
C598        C  0.32323071  0.04255215  0.65642963     0.36550
H599        H  0.39741829  0.07342967  0.61382140     0.16920
O600        O  0.38003601  0.09891731  0.55516824    -0.60000
H601        H  0.28646653  0.04927934  0.62969130     0.16930
O602        O  0.30450785  0.02466344  0.68998474    -0.60100
H603        H  0.30635692  0.04012005  0.71216169     0.43930
H604        H  0.39349369  0.12047002  0.56711090     0.43880
C605        C  0.33032116  0.07410649  0.90663497    -0.05180
C606        C  0.32625794  0.07514197  0.86196082    -0.32610
C607        C  0.33865360  0.06181723  0.83338985     0.36640
C608        C  0.35508993  0.04739541  0.84980218    -0.05540
C609        C  0.35914219  0.04656100  0.89438377    -0.32510
C610        C  0.34670124  0.05961108  0.92279177     0.36550
H611        H  0.31342238  0.08609369  0.84940131     0.16920
O612        O  0.33437092  0.06269759  0.78981318    -0.60000
H613        H  0.37192653  0.03560430  0.90717052     0.16930
O614        O  0.35106136  0.05855321  0.96636912    -0.60100
H615        H  0.33237835  0.03867583  0.97642455     0.43930
H616        H  0.35398484  0.08146219  0.77925477     0.43880
C617        C  0.35765983  0.84200742  0.25056086     0.00850
C618        C  0.34227677  0.85831433  0.25041507     0.00850
C619        C  0.46785352  0.85414919  0.25036754     0.00850
C620        C  0.43598396  0.83936940  0.25044086     0.00850
C621        C  0.46580123  0.56377476  0.25068708     0.00850
C622        C  0.43393183  0.54790040  0.25095873     0.00850
C623        C  0.36885888  0.53326828  0.32180874     0.03420
C624        C  0.40101862  0.55078888  0.31006264    -0.12730
C625        C  0.41543088  0.53498969  0.29172591     0.00920
C626        C  0.39909690  0.50195138  0.29557163    -0.11260
C627        C  0.36614101  0.48677264  0.28993158     0.03410
C628        C  0.35061622  0.50175967  0.30756032    -0.10680
H629        H  0.41379533  0.57634033  0.31229156     0.09000
H630        H  0.41107329  0.48962630  0.28483427     0.06530
H631        H  0.32499036  0.48987736  0.30799888     0.06380
C632        C  0.36828325  0.53372914  0.17926441     0.03420
C633        C  0.40001209  0.55142733  0.19362699    -0.12730
C634        C  0.41496972  0.53569113  0.21031775     0.00920
C635        C  0.39950583  0.50287784  0.20416672    -0.11260
C636        C  0.36643694  0.48679926  0.20848027     0.03410
C637        C  0.35065710  0.50143462  0.19079383    -0.10680
H638        H  0.41210888  0.57700921  0.19422002     0.09000
H639        H  0.41175600  0.49071042  0.21423814     0.06530
H640        H  0.32515334  0.48808091  0.18788873     0.06380
C641        C  0.35369335  0.96806884  0.24915933     0.00850
C642        C  0.33920345  0.93632106  0.24921573     0.00850
C643        C  0.03269970  0.61251081  0.32130655     0.03420
C644        C  0.04928587  0.59783655  0.30538251    -0.12730
C645        C  0.03230367  0.56727510  0.28792184     0.00920
C646        C  0.99944712  0.55073737  0.29445641    -0.11260
C647        C  0.48457228  0.56875970  0.29111050     0.03410
C648        C  0.00045541  0.59905887  0.30959672    -0.10680
H649        H  0.07492079  0.61081417  0.30390831     0.09000
H650        H  0.98630436  0.52633499  0.28399954     0.06530
H651        H  0.48829848  0.61230528  0.31249769     0.06380
C652        C  0.03127321  0.61217572  0.17664406     0.03420
C653        C  0.00017385  0.60013050  0.19223842    -0.12730
C654        C  0.48409681  0.56950258  0.20964589     0.00920
C655        C  0.99781973  0.55059755  0.20316238    -0.11260
C656        C  0.03093971  0.56619367  0.20629890     0.03410
C657        C  0.04766860  0.59632065  0.18762031    -0.10680
H658        H  0.48932805  0.61471495  0.19258676     0.09000
H659        H  0.98458929  0.52624335  0.21369927     0.06530
H660        H  0.07321375  0.60822734  0.18468099     0.06380
C661        C  0.04376917  0.56021299  0.24684094     0.00850
C662        C  0.06008027  0.54479465  0.24670184     0.00850
C663        C  0.11198151  0.53257001  0.32126779     0.03420
C664        C  0.09693044  0.49989638  0.31146686    -0.12730
C665        C  0.06667759  0.98480376  0.29276006     0.00920
C666        C  0.04973580  0.50085340  0.29521276    -0.11260
C667        C  0.06738056  0.53348315  0.28760921     0.03410
C668        C  0.09837398  0.54976595  0.30401312    -0.10680
H669        H  0.10903780  0.98670802  0.31548887     0.09000
H670        H  0.02526445  0.48833365  0.28479702     0.06530
H671        H  0.11242234  0.57518772  0.30057799     0.06380
C672        C  0.36971350  0.79007100  0.32297926     0.03420
C673        C  0.35303510  0.80485290  0.30813566    -0.12730
C674        C  0.36970370  0.83548448  0.29118219     0.00920
C675        C  0.40268384  0.85199495  0.29629025    -0.11260
C676        C  0.41742547  0.83394770  0.29143140     0.03410
C677        C  0.40182819  0.80359293  0.30989916    -0.10680
H678        H  0.32743250  0.79169554  0.30619386     0.09000
H679        H  0.41559991  0.87636236  0.28572932     0.06530
H680        H  0.41412388  0.79045577  0.31161889     0.06380
Fe681      Fe  0.33063175  0.64181006  0.99806066     1.65780
Fe682      Fe  0.26013458  0.64064704  0.50098774     1.73250
Fe683      Fe  0.26074492  0.57125009  0.49854069     1.54410
O684        O  0.29070941  0.56817007  0.45456654    -0.81390
O685        O  0.23178955  0.61409402  0.05185888    -0.79690
O686        O  0.33329421  0.61606210  0.44719143    -0.83890
O687        O  0.33428092  0.61226298  0.04193378    -0.78750
O688        O  0.23215399  0.56867055  0.44756862    -0.80520
O689        O  0.28996815  0.67342306  0.04533004    -0.83270
C690        C  0.31594469  0.58581956  0.05954524     0.97500
C691        C  0.31698936  0.58711772  0.43713182     1.04940
O692        O  0.28387500  0.61792638  0.49916218    -1.12250
O693        O  0.28574684  0.67018527  0.45065720    -0.74680
O694        O  0.33321095  0.67424768  0.45350128    -0.78170
O695        O  0.28689908  0.56892066  0.04943962    -0.78860
C696        C  0.31419922  0.68207962  0.43785033     0.96400
O697        O  0.33399718  0.67075532  0.04910562    -0.76820
O698        O  0.22696140  0.61093350  0.45663563    -0.82010
C699        C  0.21931231  0.58502332  0.06122354     0.99020
C700        C  0.21949638  0.58501663  0.43789229     1.04940
O701        O  0.22725482  0.56701422  0.04257295    -0.77650
C702        C  0.31698078  0.68212081  0.06141666     1.03240
C703        C  0.37027518  0.78960528  0.17836318     0.03420
C704        C  0.35322371  0.80401385  0.19363233    -0.12730
C705        C  0.36962713  0.83491704  0.21012056     0.00920
C706        C  0.40256647  0.85173090  0.20465776    -0.11260
C707        C  0.41764912  0.83402633  0.20941244     0.03410
C708        C  0.40250007  0.80373564  0.19085453    -0.10680
H709        H  0.32765421  0.79051673  0.19602933     0.09000
H710        H  0.41529932  0.87616677  0.21505488     0.06530
H711        H  0.41528692  0.79109865  0.18875734     0.06380
C712        C  0.11229496  0.53150578  0.17855707     0.03420
C713        C  0.09600783  0.54792762  0.18765335    -0.12730
C714        C  0.06568896  0.53163850  0.20612874     0.00920
C715        C  0.04977893  0.49856045  0.20373600    -0.11260
C716        C  0.06833752  0.48464642  0.21124124     0.03410
C717        C  0.09933314  0.50045466  0.19490970    -0.10680
H718        H  0.10690810  0.57309364  0.18278461     0.09000
H719        H  0.02530370  0.48572829  0.21415583     0.06530
H720        H  0.11385973  0.48959756  0.19739010     0.06380
C721        C  0.03420861  0.86884556  0.32095854     0.03420
C722        C  0.00255584  0.85092779  0.30620367    -0.12730
C723        C  0.98685283  0.86627458  0.29082983     0.00920
C724        C  0.00182124  0.89903240  0.29721802    -0.11260
C725        C  0.03487572  0.91562858  0.29290537     0.03410
C726        C  0.05111247  0.90144691  0.31054090    -0.10680
H727        H  0.99105260  0.82542496  0.30394647     0.09000
H728        H  0.98922693  0.91086590  0.28716664     0.06530
H729        H  0.07646843  0.91562088  0.31392171     0.06380
C730        C  0.03399371  0.86924321  0.17992841     0.03420
C731        C  0.00191688  0.85147855  0.19283388    -0.12730
C732        C  0.98676569  0.86693004  0.20989867     0.00920
C733        C  0.00249890  0.89987558  0.20548916    -0.11260
C734        C  0.03543528  0.91566397  0.21114497     0.03410
C735        C  0.05153434  0.90123338  0.19339186    -0.10680
H736        H  0.98966851  0.82588631  0.19242997     0.09000
H737        H  0.99012676  0.91185688  0.21604221     0.06530
H738        H  0.07709032  0.91451676  0.19177365     0.06380
Fe739      Fe  0.07172981  0.75944083  0.50026658     1.65780
Fe740      Fe  0.14188560  0.83001847  0.00026322     1.73250
Fe741      Fe  0.14199735  0.75998675  0.00063159     1.54410
O742        O  0.11315441  0.72770752  0.04621992    -0.81390
O743        O  0.17240297  0.83322620  0.45148601    -0.79690
O744        O  0.06857815  0.72961392  0.04954047    -0.83890
O745        O  0.06872822  0.72775140  0.45352109    -0.78750
O746        O  0.17171671  0.78712720  0.04938677    -0.80520
O747        O  0.11343534  0.83284829  0.45304403    -0.83270
C748        C  0.08723405  0.71897842  0.43841751     0.97500
C749        C  0.08592671  0.71870179  0.06173574     1.04940
O750        O  0.11854663  0.78317476  0.00041645    -1.12250
O751        O  0.11448979  0.83304544  0.04902863    -0.74680
O752        O  0.06825388  0.78799463  0.04625071    -0.78170
O753        O  0.11533489  0.72988143  0.45180377    -0.78860
C754        C  0.08614780  0.81540230  0.06158639     0.96400
O755        O  0.06879309  0.78622774  0.45153953    -0.76820
O756        O  0.17346371  0.83347937  0.04744317    -0.82010
C757        C  0.18344123  0.81590853  0.43936540     0.99020
C758        C  0.18244501  0.81521346  0.06259728     1.04940
O759        O  0.17417440  0.78874610  0.45499991    -0.77650
C760        C  0.08599296  0.81427444  0.43806689     1.03240
C761        C  0.28966555  0.87066415  0.32136512     0.03420
C762        C  0.30497142  0.85400129  0.30835674    -0.12730
C763        C  0.33562547  0.87058347  0.29097620     0.00920
C764        C  0.35194204  0.90353083  0.29555801    -0.11260
C765        C  0.33372041  0.91804400  0.29022256     0.03410
C766        C  0.30321287  0.90255874  0.30826465    -0.10680
H767        H  0.29230530  0.82840074  0.30881226     0.09000
H768        H  0.37641229  0.91646271  0.28515124     0.06530
H769        H  0.29014568  0.91492355  0.31018904     0.06380
C770        C  0.29022410  0.87017516  0.17754970     0.03420
C771        C  0.30380612  0.90225066  0.18999806    -0.12730
C772        C  0.33416380  0.91784004  0.20842806     0.00920
C773        C  0.35223078  0.90305261  0.20414213    -0.11260
C774        C  0.33565717  0.87017739  0.20963304     0.03410
C775        C  0.30498720  0.85349011  0.19246341    -0.10680
H776        H  0.29060895  0.91448553  0.18786697     0.09000
H777        H  0.37665542  0.91601180  0.21469383     0.06530
H778        H  0.29188861  0.82790825  0.19376768     0.06380
C779        C  0.04744954  0.93439796  0.25214319     0.00850
C780        C  0.06182698  0.96617196  0.25217741     0.00850
C781        C  0.26043351  0.85469404  0.34814975    -0.05180
C782        C  0.25948853  0.83527859  0.38211048    -0.32610
C783        C  0.23427145  0.82210900  0.41120857     0.36640
C784        C  0.20915438  0.82821710  0.40698559    -0.05540
C785        C  0.20952913  0.84701697  0.37258388    -0.32510
C786        C  0.23462023  0.85978796  0.34283213     0.36550
H787        H  0.27905917  0.83118263  0.38722078     0.16920
O788        O  0.23510622  0.80430484  0.44476904    -0.60000
H789        H  0.19017428  0.85158058  0.36855721     0.16930
O790        O  0.23336691  0.87684278  0.30864237    -0.60100
H791        H  0.22598486  0.86198719  0.28384780     0.43930
H792        H  0.24545904  0.81943369  0.46887724     0.43880
C793        C  0.26073995  0.85394469  0.15126430    -0.05180
C794        C  0.23687573  0.86190311  0.15540830    -0.32610
C795        C  0.21082326  0.84912184  0.12734080     0.36640
C796        C  0.20793628  0.82751048  0.09512506    -0.05540
C797        C  0.23099370  0.81862108  0.09207586    -0.32510
C798        C  0.25739845  0.83196763  0.11906896     0.36550
H799        H  0.23840139  0.87823674  0.18016003     0.16920
O800        O  0.18851079  0.85809641  0.13147205    -0.60000
H801        H  0.22940108  0.80236572  0.06706931     0.16930
O802        O  0.28052693  0.82439763  0.11212228    -0.60100
H803        H  0.29583216  0.84085578  0.09219423     0.43930
H804        H  0.17174958  0.84178765  0.15010102     0.43820
C805        C  0.07277534  0.82765724  0.09408064    -0.05180
C806        C  0.09174545  0.84780534  0.12739035    -0.32610
C807        C  0.07942383  0.86058571  0.15706595     0.36640
C808        C  0.04789089  0.85408141  0.15279233    -0.05540
C809        C  0.02900989  0.83350154  0.11976705    -0.32510
C810        C  0.04105281  0.82032486  0.09084335     0.36550
H811        H  0.11610951  0.85342277  0.13064724     0.16920
O812        O  0.09834208  0.87895670  0.19019466    -0.60000
H813        H  0.00488430  0.82834357  0.11525672     0.16930
O814        O  0.02185536  0.80129410  0.05832332    -0.60100
H815        H  0.02450372  0.81591480  0.03449793     0.43930
H816        H  0.09197221  0.86471303  0.21554965     0.43880
C817        C  0.07283080  0.82615728  0.40487116    -0.05180
C818        C  0.09293561  0.84971230  0.37572711    -0.32610
C819        C  0.08096339  0.86298732  0.34642445     0.36640
C820        C  0.04832159  0.85322932  0.34678179    -0.05540
C821        C  0.02830729  0.82885365  0.37515939    -0.32510
C822        C  0.04012129  0.81523285  0.40352433     0.36550
H823        H  0.11806245  0.85783502  0.37554652     0.16920
O824        O  0.10111839  0.88426653  0.31651845    -0.60000
H825        H  0.00326156  0.82092907  0.37679739     0.16930
O826        O  0.01946091  0.79202523  0.43102289    -0.60100
H827        H  0.01711907  0.80339827  0.45596964     0.43930
H828        H  0.11652214  0.90305564  0.33328634     0.43880
C829        C  0.14193815  0.54574531  0.15242104    -0.05180
C830        C  0.14566495  0.52630189  0.12244080    -0.32610
C831        C  0.17107948  0.53856820  0.09366272     0.36640
C832        C  0.19372535  0.57114528  0.09406945    -0.05540
C833        C  0.19080067  0.59054027  0.12502901    -0.32510
C834        C  0.16531837  0.57812389  0.15424358     0.36550
H835        H  0.12802197  0.50144069  0.12001167     0.16920
O836        O  0.17280767  0.51848111  0.06429126    -0.60000
H837        H  0.20831136  0.61548081  0.12661833     0.16930
O838        O  0.16431773  0.59751651  0.18546878    -0.60100
H839        H  0.16128238  0.61343918  0.16980087     0.43930
H840        H  0.16040441  0.51851813  0.03901043     0.43880
C841        C  0.32926902  0.70762810  0.09433953    -0.05180
C842        C  0.31798990  0.72889463  0.09417783    -0.32610
C843        C  0.33041510  0.75489606  0.12198349     0.36640
C844        C  0.35437623  0.75996899  0.15190781    -0.05540
C845        C  0.36472248  0.73779342  0.15328739    -0.32510
C846        C  0.35283869  0.71222468  0.12437013     0.36550
H847        H  0.30028444  0.72625459  0.07090679     0.16920
O848        O  0.32063079  0.77650535  0.11702525    -0.60000
H849        H  0.38235760  0.74023973  0.17642551     0.16930
O850        O  0.36414701  0.69168757  0.12621137    -0.60100
H851        H  0.38421645  0.70203207  0.10954989     0.43930
H852        H  0.29872752  0.76609128  0.12861712     0.43880
C853        C  0.32623688  0.70737465  0.40500079    -0.05180
C854        C  0.31619976  0.72954068  0.40654382    -0.32610
C855        C  0.32966811  0.75601973  0.37961550     0.36640
C856        C  0.35320880  0.76043090  0.34914658    -0.05540
C857        C  0.36219845  0.73729666  0.34640597    -0.32510
C858        C  0.34938351  0.71133315  0.37452130     0.36550
H859        H  0.29895461  0.72727977  0.43044076     0.16920
O860        O  0.32143234  0.77869532  0.38598425    -0.60000
H861        H  0.37947747  0.73931496  0.32284877     0.16930
O862        O  0.35931187  0.68971817  0.37151581    -0.60100
H863        H  0.37969334  0.69930817  0.38738375     0.43930
H864        H  0.29946681  0.76933529  0.37494881     0.43880
C865        C  0.19406133  0.57321195  0.40477689    -0.05180
C866        C  0.17270841  0.58446888  0.40535691    -0.32610
C867        C  0.14677666  0.57232075  0.37738254     0.36640
C868        C  0.14175850  0.54856055  0.34722994    -0.05540
C869        C  0.16400145  0.53832329  0.34524455    -0.32510
C870        C  0.18964069  0.55007150  0.37401008     0.36550
H871        H  0.17524710  0.60195357  0.42896056     0.16920
O872        O  0.12513489  0.58212508  0.38230713    -0.60000
H873        H  0.16142744  0.52079843  0.32176105     0.16930
O874        O  0.21034294  0.53895762  0.37139547    -0.60100
H875        H  0.19999584  0.51868628  0.38742898     0.43930
H876        H  0.13541984  0.60373985  0.36999552     0.43880
C877        C  0.07301586  0.69255254  0.09276837    -0.05180
C878        C  0.06696679  0.66294344  0.07826623    -0.32610
C879        C  0.05343667  0.63688886  0.10573795     0.36640
C880        C  0.04630841  0.64030748  0.14872456    -0.05540
C881        C  0.05243503  0.66999460  0.16352158    -0.32510
C882        C  0.06591095  0.69619182  0.13570427     0.36550
H883        H  0.07206167  0.65986899  0.04511446     0.16920
O884        O  0.04651007  0.60789085  0.08999678    -0.60000
H885        H  0.04689421  0.67281210  0.19652607     0.16930
O886        O  0.07218463  0.72514503  0.15068508    -0.60100
H887        H  0.09456428  0.73585475  0.16036510     0.43930
H888        H  0.02409057  0.59763183  0.08057567     0.43880
C889        C  0.04904025  0.64166584  0.34813363    -0.05180
C890        C  0.04181301  0.66596432  0.34384642    -0.32610
C891        C  0.05452884  0.69170813  0.37242457     0.36640
C892        C  0.07520659  0.69374489  0.40548839    -0.05540
C893        C  0.08338505  0.67021390  0.40875094    -0.32510
C894        C  0.07016302  0.64416171  0.38105279     0.36550
H895        H  0.02607066  0.66496625  0.31857241     0.16920
O896        O  0.04644008  0.71460176  0.36792081    -0.60000
H897        H  0.09895867  0.67120795  0.43434084     0.16930
O898        O  0.07692964  0.62052481  0.38794130    -0.60100
H899        H  0.05983089  0.60521760  0.40715352     0.43930
H900        H  0.06345943  0.73122769  0.34993628     0.43880
C901        C  0.35467378  0.54889986  0.15205579    -0.05180
C902        C  0.37340035  0.56862052  0.11836664    -0.32610
C903        C  0.36124479  0.58124503  0.08887106     0.36640
C904        C  0.32951877  0.57401938  0.09220536    -0.05540
C905        C  0.31077966  0.55474709  0.12626972    -0.32510
C906        C  0.32323282  0.54255190  0.15643061     0.36550
H907        H  0.39742042  0.57342930  0.11382245     0.16920
O908        O  0.38003829  0.59891719  0.05516943    -0.60000
H909        H  0.28646874  0.54927925  0.12969232     0.16930
O910        O  0.30450990  0.52466317  0.18998566    -0.60100
H911        H  0.30635981  0.54011976  0.21216321     0.43930
H912        H  0.39349597  0.62046987  0.06711216     0.43880
C913        C  0.33032377  0.57410629  0.40663635    -0.05180
C914        C  0.32626119  0.57514226  0.36196212    -0.32610
C915        C  0.33865671  0.56181727  0.33339134     0.36640
C916        C  0.35509230  0.54739475  0.34980390    -0.05540
C917        C  0.35914395  0.54655987  0.39438557    -0.32510
C918        C  0.34670310  0.55961017  0.42279340     0.36550
H919        H  0.31342616  0.58609446  0.34940240     0.16920
O920        O  0.33437453  0.56269801  0.28981459    -0.60000
H921        H  0.37192773  0.53560264  0.40717250     0.16930
O922        O  0.35106263  0.55855184  0.46637083    -0.60100
H923        H  0.33237934  0.53867449  0.47642575     0.43930
H924        H  0.35398879  0.58146241  0.27925655     0.43880
C925        C  0.35765983  0.84200742  0.75056087     0.00850
C926        C  0.34227677  0.85831434  0.75041507     0.00850
C927        C  0.46785353  0.85414920  0.75036754     0.00850
C928        C  0.43598396  0.83936940  0.75044086     0.00850
C929        C  0.46580123  0.56377476  0.75068709     0.00850
C930        C  0.43393183  0.54790039  0.75095874     0.00850
C931        C  0.36885890  0.53326828  0.82180875     0.03420
C932        C  0.40101864  0.55078886  0.81006268    -0.12730
C933        C  0.41543088  0.53498968  0.79172593     0.00920
C934        C  0.39909688  0.50195136  0.79557163    -0.11260
C935        C  0.36614100  0.48677264  0.78993157     0.03410
C936        C  0.35061622  0.50175968  0.80756029    -0.10680
H937        H  0.41379536  0.57634032  0.81229161     0.09000
H938        H  0.41107327  0.48962628  0.78483427     0.06530
H939        H  0.32499036  0.48987739  0.80799884     0.06380
C940        C  0.36828325  0.53372914  0.67926442     0.03420
C941        C  0.40001209  0.55142732  0.69362701    -0.12730
C942        C  0.41496972  0.53569112  0.71031777     0.00920
C943        C  0.39950583  0.50287783  0.70416672    -0.11260
C944        C  0.36643694  0.48679926  0.70848026     0.03410
C945        C  0.35065710  0.50143461  0.69079382    -0.10680
H946        H  0.41210888  0.57700921  0.69422005     0.09000
H947        H  0.41175600  0.49071041  0.71423814     0.06530
H948        H  0.32515334  0.48808091  0.68788870     0.06380
C949        C  0.35369329  0.96806883  0.74915929     0.00850
C950        C  0.33920344  0.93632106  0.74921570     0.00850
C951        C  0.03269970  0.61251081  0.82130655     0.03420
C952        C  0.04928587  0.59783654  0.80538251    -0.12730
C953        C  0.03230366  0.56727509  0.78792184     0.00920
C954        C  0.99944712  0.55073736  0.79445641    -0.11260
C955        C  0.48457228  0.56875970  0.79111050     0.03410
C956        C  0.00045541  0.59905888  0.80959672    -0.10680
H957        H  0.07492079  0.61081416  0.80390831     0.09000
H958        H  0.98630435  0.52633499  0.78399954     0.06530
H959        H  0.48829848  0.61230529  0.81249769     0.06380
C960        C  0.03127320  0.61217571  0.67664406     0.03420
C961        C  0.00017384  0.60013050  0.69223843    -0.12730
C962        C  0.48409681  0.56950258  0.70964590     0.00920
C963        C  0.99781972  0.55059754  0.70316238    -0.11260
C964        C  0.03093970  0.56619366  0.70629891     0.03410
C965        C  0.04766859  0.59632064  0.68762031    -0.10680
H966        H  0.48932804  0.61471495  0.69258677     0.09000
H967        H  0.98458927  0.52624335  0.71369927     0.06530
H968        H  0.07321374  0.60822732  0.68468100     0.06380
C969        C  0.04376916  0.56021298  0.74684094     0.00850
C970        C  0.06008025  0.54479464  0.74670184     0.00850
C971        C  0.11198151  0.53257001  0.82126779     0.03420
C972        C  0.09693043  0.49989637  0.81146685    -0.12730
C973        C  0.06667760  0.98480378  0.79276005     0.00920
C974        C  0.04973580  0.50085338  0.79521276    -0.11260
C975        C  0.06738055  0.53348314  0.78760921     0.03410
C976        C  0.09837397  0.54976594  0.80401312    -0.10680
H977        H  0.10903781  0.98670804  0.81548886     0.09000
H978        H  0.02526445  0.48833363  0.78479702     0.06530
H979        H  0.11242232  0.57518771  0.80057799     0.06380
C980        C  0.36971350  0.79007101  0.82297927     0.03420
C981        C  0.35303510  0.80485290  0.80813567    -0.12730
C982        C  0.36970370  0.83548448  0.79118220     0.00920
C983        C  0.40268384  0.85199495  0.79629025    -0.11260
C984        C  0.41742547  0.83394770  0.79143140     0.03410
C985        C  0.40182819  0.80359294  0.80989917    -0.10680
H986        H  0.32743250  0.79169554  0.80619387     0.09000
H987        H  0.41559990  0.87636237  0.78572932     0.06530
H988        H  0.41412388  0.79045577  0.81161889     0.06380
Fe989      Fe  0.33063175  0.64181007  0.49806065     1.65780
Fe990      Fe  0.26013458  0.64064704  0.00098774     1.73250
Fe991      Fe  0.26074492  0.57125009  0.99854067     1.54410
O992        O  0.29070938  0.56817007  0.95456648    -0.81390
O993        O  0.23178957  0.61409404  0.55185890    -0.79690
O994        O  0.33329423  0.61606209  0.94719147    -0.83890
O995        O  0.33428092  0.61226297  0.54193374    -0.78750
O996        O  0.23215397  0.56867055  0.94756863    -0.80520
O997        O  0.28996817  0.67342308  0.54533002    -0.83270
C998        C  0.31594470  0.58581957  0.55954524     0.97500
C999        C  0.31698936  0.58711771  0.93713181     1.04940
O1000       O  0.28387500  0.61792638  0.99916218    -1.12250
O1001       O  0.28574685  0.67018528  0.95065721    -0.74680
O1002       O  0.33321095  0.67424766  0.95350126    -0.78170
O1003       O  0.28689907  0.56892069  0.54943966    -0.78860
C1004       C  0.31419923  0.68207962  0.93785033     0.96400
O1005       O  0.33399718  0.67075531  0.54910563    -0.76820
O1006       O  0.22696141  0.61093351  0.95663561    -0.82010
C1007       C  0.21931231  0.58502333  0.56122354     0.99020
C1008       C  0.21949637  0.58501663  0.93789228     1.04940
O1009       O  0.22725481  0.56701423  0.54257294    -0.77650
C1010       C  0.31698079  0.68212081  0.56141665     1.03240
C1011       C  0.37027518  0.78960528  0.67836319     0.03420
C1012       C  0.35322371  0.80401384  0.69363234    -0.12730
C1013       C  0.36962712  0.83491704  0.71012057     0.00920
C1014       C  0.40256646  0.85173090  0.70465776    -0.11260
C1015       C  0.41764912  0.83402633  0.70941244     0.03410
C1016       C  0.40250008  0.80373564  0.69085454    -0.10680
H1017       H  0.32765421  0.79051672  0.69602935     0.09000
H1018       H  0.41529931  0.87616678  0.71505488     0.06530
H1019       H  0.41528693  0.79109865  0.68875734     0.06380
C1020       C  0.11229496  0.53150578  0.67855706     0.03420
C1021       C  0.09600781  0.54792761  0.68765334    -0.12730
C1022       C  0.06568894  0.53163849  0.70612874     0.00920
C1023       C  0.04977892  0.49856043  0.70373600    -0.11260
C1024       C  0.06833752  0.48464641  0.71124124     0.03410
C1025       C  0.09933314  0.50045466  0.69490970    -0.10680
H1026       H  0.10690808  0.57309363  0.68278460     0.09000
H1027       H  0.02530369  0.48572827  0.71415583     0.06530
H1028       H  0.11385974  0.48959756  0.69739010     0.06380
C1029       C  0.03420861  0.86884557  0.82095854     0.03420
C1030       C  0.00255585  0.85092780  0.80620367    -0.12730
C1031       C  0.98685284  0.86627459  0.79082983     0.00920
C1032       C  0.00182124  0.89903241  0.79721801    -0.11260
C1033       C  0.03487572  0.91562859  0.79290537     0.03410
C1034       C  0.05111247  0.90144693  0.81054090    -0.10680
H1035       H  0.99105260  0.82542497  0.80394646     0.09000
H1036       H  0.98922693  0.91086591  0.78716664     0.06530
H1037       H  0.07646843  0.91562089  0.81392170     0.06380
C1038       C  0.03399371  0.86924322  0.67992841     0.03420
C1039       C  0.00191688  0.85147856  0.69283388    -0.12730
C1040       C  0.98676569  0.86693005  0.70989867     0.00920
C1041       C  0.00249890  0.89987559  0.70548916    -0.11260
C1042       C  0.03543528  0.91566398  0.71114496     0.03410
C1043       C  0.05153434  0.90123339  0.69339185    -0.10680
H1044       H  0.98966851  0.82588632  0.69242996     0.09000
H1045       H  0.99012677  0.91185688  0.71604220     0.06530
H1046       H  0.07709032  0.91451677  0.69177365     0.06380
Fe1047     Fe  0.07172981  0.75944083  0.00026657     1.65780
Fe1048     Fe  0.14188560  0.83001847  0.50026322     1.73250
Fe1049     Fe  0.14199735  0.75998674  0.50063158     1.54410
O1050       O  0.11315438  0.72770749  0.54621988    -0.81390
O1051       O  0.17240298  0.83322620  0.95148603    -0.79690
O1052       O  0.06857816  0.72961395  0.54954053    -0.83890
O1053       O  0.06872823  0.72775143  0.95352104    -0.78750
O1054       O  0.17171669  0.78712718  0.54938679    -0.80520
O1055       O  0.11343536  0.83284830  0.95304400    -0.83270
C1056       C  0.08723405  0.71897843  0.93841750     0.97500
C1057       C  0.08592671  0.71870179  0.56173574     1.04940
O1058       O  0.11854662  0.78317476  0.50041645    -1.12250
O1059       O  0.11448981  0.83304544  0.54902866    -0.74680
O1060       O  0.06825388  0.78799466  0.54625069    -0.78170
O1061       O  0.11533488  0.72988140  0.95180381    -0.78860
C1062       C  0.08614781  0.81540231  0.56158639     0.96400
O1063       O  0.06879309  0.78622776  0.95153955    -0.76820
O1064       O  0.17346372  0.83347937  0.54744314    -0.82010
C1065       C  0.18344123  0.81590853  0.93936540     0.99020
C1066       C  0.18244501  0.81521344  0.56259728     1.04940
O1067       O  0.17417439  0.78874609  0.95499989    -0.77650
C1068       C  0.08599297  0.81427445  0.93806688     1.03240
C1069       C  0.28966555  0.87066416  0.82136513     0.03420
C1070       C  0.30497143  0.85400130  0.80835675    -0.12730
C1071       C  0.33562548  0.87058348  0.79097620     0.00920
C1072       C  0.35194204  0.90353084  0.79555799    -0.11260
C1073       C  0.33372040  0.91804401  0.79022255     0.03410
C1074       C  0.30321287  0.90255874  0.80826464    -0.10680
H1075       H  0.29230531  0.82840075  0.80881228     0.09000
H1076       H  0.37641229  0.91646273  0.78515123     0.06530
H1077       H  0.29014567  0.91492355  0.81018903     0.06380
C1078       C  0.29022410  0.87017514  0.67754969     0.03420
C1079       C  0.30380612  0.90225065  0.68999804    -0.12730
C1080       C  0.33416379  0.91784004  0.70842804     0.00920
C1081       C  0.35223077  0.90305261  0.70414212    -0.11260
C1082       C  0.33565717  0.87017739  0.70963304     0.03410
C1083       C  0.30498720  0.85349010  0.69246341    -0.10680
H1084       H  0.29060894  0.91448552  0.68786694     0.09000
H1085       H  0.37665542  0.91601181  0.71469381     0.06530
H1086       H  0.29188861  0.82790824  0.69376769     0.06380
C1087       C  0.04744954  0.93439797  0.75214318     0.00850
C1088       C  0.06182699  0.96617197  0.75217740     0.00850
C1089       C  0.26043352  0.85469405  0.84814975    -0.05180
C1090       C  0.25948853  0.83527859  0.88211048    -0.32610
C1091       C  0.23427145  0.82210900  0.91120857     0.36640
C1092       C  0.20915438  0.82821710  0.90698559    -0.05540
C1093       C  0.20952913  0.84701697  0.87258388    -0.32510
C1094       C  0.23462023  0.85978796  0.84283213     0.36550
H1095       H  0.27905918  0.83118264  0.88722079     0.16920
O1096       O  0.23510622  0.80430484  0.94476904    -0.60000
H1097       H  0.19017428  0.85158057  0.86855721     0.16930
O1098       O  0.23336691  0.87684278  0.80864237    -0.60100
H1099       H  0.22598486  0.86198718  0.78384780     0.43930
H1100       H  0.24545904  0.81943369  0.96887724     0.43880
C1101       C  0.26073994  0.85394468  0.65126430    -0.05180
C1102       C  0.23687573  0.86190309  0.65540829    -0.32610
C1103       C  0.21082326  0.84912183  0.62734079     0.36640
C1104       C  0.20793627  0.82751046  0.59512506    -0.05540
C1105       C  0.23099369  0.81862106  0.59207587    -0.32510
C1106       C  0.25739844  0.83196760  0.61906897     0.36550
H1107       H  0.23840139  0.87823674  0.68016001     0.16920
O1108       O  0.18851079  0.85809641  0.63147203    -0.60000
H1109       H  0.22940106  0.80236569  0.56706932     0.16930
O1110       O  0.28052691  0.82439760  0.61212229    -0.60100
H1111       H  0.29583214  0.84085574  0.59219424     0.43930
H1112       H  0.17174957  0.84178765  0.65010100     0.43820
C1113       C  0.07277534  0.82765726  0.59408064    -0.05180
C1114       C  0.09174545  0.84780535  0.62739036    -0.32610
C1115       C  0.07942383  0.86058572  0.65706596     0.36640
C1116       C  0.04789090  0.85408142  0.65279232    -0.05540
C1117       C  0.02900990  0.83350156  0.61976703    -0.32510
C1118       C  0.04105283  0.82032488  0.59084333     0.36550
H1119       H  0.11610951  0.85342277  0.63064726     0.16920
O1120       O  0.09834208  0.87895669  0.69019467    -0.60000
H1121       H  0.00488431  0.82834360  0.61525670     0.16930
O1122       O  0.02185537  0.80129413  0.55832329    -0.60100
H1123       H  0.02450375  0.81591484  0.53449791     0.43930
H1124       H  0.09197219  0.86471302  0.71554966     0.43880
C1125       C  0.07283081  0.82615730  0.90487116    -0.05180
C1126       C  0.09293562  0.84971232  0.87572711    -0.32610
C1127       C  0.08096340  0.86298734  0.84642445     0.36640
C1128       C  0.04832160  0.85322934  0.84678179    -0.05540
C1129       C  0.02830730  0.82885367  0.87515939    -0.32510
C1130       C  0.04012130  0.81523287  0.90352433     0.36550
H1131       H  0.11806246  0.85783504  0.87554652     0.16920
O1132       O  0.10111840  0.88426655  0.81651846    -0.60000
H1133       H  0.00326157  0.82092909  0.87679738     0.16930
O1134       O  0.01946091  0.79202525  0.93102289    -0.60100
H1135       H  0.01711908  0.80339828  0.95596964     0.43930
H1136       H  0.11652214  0.90305566  0.83328635     0.43880
C1137       C  0.14193815  0.54574531  0.65242104    -0.05180
C1138       C  0.14566496  0.52630189  0.62244081    -0.32610
C1139       C  0.17107949  0.53856820  0.59366273     0.36640
C1140       C  0.19372534  0.57114529  0.59406945    -0.05540
C1141       C  0.19080065  0.59054028  0.62502899    -0.32510
C1142       C  0.16531835  0.57812390  0.65424356     0.36550
H1143       H  0.12802199  0.50144069  0.62001169     0.16920
O1144       O  0.17280769  0.51848111  0.56429130    -0.60000
H1145       H  0.20831133  0.61548083  0.62661831     0.16930
O1146       O  0.16431770  0.59751652  0.68546875    -0.60100
H1147       H  0.16128235  0.61343919  0.66980082     0.43930
H1148       H  0.16040443  0.51851811  0.53901046     0.43880
C1149       C  0.32926903  0.70762810  0.59433953    -0.05180
C1150       C  0.31798990  0.72889462  0.59417784    -0.32610
C1151       C  0.33041510  0.75489606  0.62198350     0.36640
C1152       C  0.35437623  0.75996899  0.65190782    -0.05540
C1153       C  0.36472249  0.73779343  0.65328738    -0.32510
C1154       C  0.35283871  0.71222469  0.62437012     0.36550
H1155       H  0.30028443  0.72625459  0.57090681     0.16920
O1156       O  0.32063078  0.77650534  0.61702527    -0.60000
H1157       H  0.38235762  0.74023974  0.67642550     0.16930
O1158       O  0.36414704  0.69168759  0.62621135    -0.60100
H1159       H  0.38421648  0.70203209  0.60954986     0.43930
H1160       H  0.29872750  0.76609126  0.62861715     0.43880
C1161       C  0.32623689  0.70737466  0.90500080    -0.05180
C1162       C  0.31619977  0.72954068  0.90654383    -0.32610
C1163       C  0.32966812  0.75601974  0.87961551     0.36640
C1164       C  0.35320881  0.76043090  0.84914659    -0.05540
C1165       C  0.36219845  0.73729667  0.84640597    -0.32510
C1166       C  0.34938352  0.71133315  0.87452130     0.36550
H1167       H  0.29895462  0.72727977  0.93044077     0.16920
O1168       O  0.32143235  0.77869533  0.88598427    -0.60000
H1169       H  0.37947748  0.73931497  0.82284877     0.16930
O1170       O  0.35931188  0.68971817  0.87151580    -0.60100
H1171       H  0.37969334  0.69930817  0.88738374     0.43930
H1172       H  0.29946681  0.76933529  0.87494883     0.43880
C1173       C  0.19406133  0.57321196  0.90477688    -0.05180
C1174       C  0.17270840  0.58446888  0.90535691    -0.32610
C1175       C  0.14677665  0.57232075  0.87738254     0.36640
C1176       C  0.14175849  0.54856055  0.84722994    -0.05540
C1177       C  0.16400145  0.53832331  0.84524454    -0.32510
C1178       C  0.18964069  0.55007152  0.87401007     0.36550
H1179       H  0.17524708  0.60195356  0.92896056     0.16920
O1180       O  0.12513487  0.58212507  0.88230713    -0.60000
H1181       H  0.16142744  0.52079844  0.82176104     0.16930
O1182       O  0.21034295  0.53895765  0.87139545    -0.60100
H1183       H  0.19999585  0.51868630  0.88742895     0.43930
H1184       H  0.13541981  0.60373983  0.86999552     0.43880
C1185       C  0.07301586  0.69255255  0.59276838    -0.05180
C1186       C  0.06696693  0.66294348  0.57826629    -0.32610
C1187       C  0.05343681  0.63688889  0.60573801     0.36640
C1188       C  0.04630841  0.64030748  0.64872457    -0.05540
C1189       C  0.05243490  0.66999456  0.66352154    -0.32510
C1190       C  0.06591082  0.69619179  0.63570423     0.36550
H1191       H  0.07206191  0.65986905  0.54511457     0.16920
O1192       O  0.04651033  0.60789091  0.58999688    -0.60000
H1193       H  0.04689398  0.67281204  0.69652598     0.16930
O1194       O  0.07218437  0.72514497  0.65068499    -0.60100
H1195       H  0.09456400  0.73585475  0.66036511     0.43930
H1196       H  0.02409085  0.59763184  0.58057566     0.43880
C1197       C  0.04904026  0.64166584  0.84813362    -0.05180
C1198       C  0.04181302  0.66596432  0.84384640    -0.32610
C1199       C  0.05452885  0.69170813  0.87242455     0.36640
C1200       C  0.07520659  0.69374489  0.90548838    -0.05540
C1201       C  0.08338505  0.67021390  0.90875094    -0.32510
C1202       C  0.07016302  0.64416171  0.88105279     0.36550
H1203       H  0.02607068  0.66496626  0.81857238     0.16920
O1204       O  0.04644010  0.71460177  0.86792077    -0.60000
H1205       H  0.09895866  0.67120794  0.93434084     0.16930
O1206       O  0.07692964  0.62052480  0.88794131    -0.60100
H1207       H  0.05983088  0.60521759  0.90715353     0.43930
H1208       H  0.06345946  0.73122770  0.84993625     0.43880
C1209       C  0.35467378  0.54889987  0.65205580    -0.05180
C1210       C  0.37340036  0.56862055  0.61836668    -0.32610
C1211       C  0.36124480  0.58124506  0.58887109     0.36640
C1212       C  0.32951878  0.57401940  0.59220537    -0.05540
C1213       C  0.31077966  0.55474708  0.62626971    -0.32510
C1214       C  0.32323282  0.54255189  0.65643060     0.36550
H1215       H  0.39742044  0.57342934  0.61382251     0.16920
O1216       O  0.38003832  0.59891724  0.55516949    -0.60000
H1217       H  0.28646873  0.54927922  0.62969229     0.16930
O1218       O  0.30450988  0.52466314  0.68998563    -0.60100
H1219       H  0.30635968  0.54011971  0.71216313     0.43930
H1220       H  0.39349598  0.62046992  0.56711223     0.43880
C1221       C  0.33032377  0.57410630  0.90663634    -0.05180
C1222       C  0.32626102  0.57514207  0.86196213    -0.32610
C1223       C  0.33865655  0.56181709  0.83339135     0.36640
C1224       C  0.35509232  0.54739477  0.84980390    -0.05540
C1225       C  0.35914415  0.54656007  0.89438556    -0.32510
C1226       C  0.34670328  0.55961036  0.92279338     0.36550
H1227       H  0.31342584  0.58609414  0.84940241     0.16920
O1228       O  0.33437421  0.56269766  0.78981461    -0.60000
H1229       H  0.37192806  0.53560298  0.90717249     0.16930
O1230       O  0.35106296  0.55855218  0.96637080    -0.60100
H1231       H  0.33237973  0.53867484  0.97642587     0.43930
H1232       H  0.35398839  0.58146207  0.77925642     0.43880
C1233       C  0.85766121  0.34200833  0.25056041     0.00850
C1234       C  0.84227685  0.35831395  0.25041489     0.00850
C1235       C  0.96785413  0.35414937  0.25036701     0.00850
C1236       C  0.93598452  0.33936883  0.25044020     0.00850
C1237       C  0.96579945  0.06377532  0.25068634     0.00850
C1238       C  0.93393006  0.04790153  0.25095790     0.00850
C1239       C  0.86885662  0.03326913  0.32180692     0.03420
C1240       C  0.90101640  0.05078992  0.31006114    -0.12730
C1241       C  0.91542901  0.03499091  0.29172500     0.00920
C1242       C  0.89909529  0.00195261  0.29557096    -0.11260
C1243       C  0.86613940  0.98677356  0.28993063     0.03410
C1244       C  0.85061427  0.00176043  0.30755875    -0.10680
H1245       H  0.91379291  0.07634139  0.31228997     0.09000
H1246       H  0.91107193  0.98962772  0.28483386     0.06530
H1247       H  0.82498840  0.98987787  0.30799717     0.06380
C1248       C  0.86828131  0.03372969  0.17926360     0.03420
C1249       C  0.90001014  0.05142811  0.19362615    -0.12730
C1250       C  0.91496801  0.03569215  0.21031691     0.00920
C1251       C  0.89950439  0.00287886  0.20416589    -0.11260
C1252       C  0.86643549  0.98680002  0.20847945     0.03410
C1253       C  0.85065539  0.00143516  0.19079310    -0.10680
H1254       H  0.91210674  0.07700998  0.19421914     0.09000
H1255       H  0.91175476  0.99071167  0.21423745     0.06530
H1256       H  0.82515163  0.98808129  0.18788807     0.06380
C1257       C  0.85369456  0.46806815  0.24916015     0.00850
C1258       C  0.83920303  0.43632028  0.24921636     0.00850
C1259       C  0.53269822  0.11251075  0.32130572     0.03420
C1260       C  0.54928397  0.09783603  0.30538169    -0.12730
C1261       C  0.53230136  0.06727456  0.28792113     0.00920
C1262       C  0.49944482  0.05073728  0.29445577    -0.11260
C1263       C  0.98457041  0.06876003  0.29110979     0.03410
C1264       C  0.50045397  0.09905923  0.30959591    -0.10680
H1265       H  0.57491889  0.11081331  0.30390743     0.09000
H1266       H  0.48630172  0.02633490  0.28399899     0.06530
H1267       H  0.98829738  0.11230598  0.31249684     0.06380
C1268       C  0.53127165  0.11217535  0.17664332     0.03420
C1269       C  0.50017237  0.10013062  0.19223766    -0.12730
C1270       C  0.98409494  0.06950274  0.20964519     0.00920
C1271       C  0.49781736  0.05059726  0.20316174    -0.11260
C1272       C  0.53093732  0.06619292  0.20629819     0.03410
C1273       C  0.54766660  0.09631983  0.18761950    -0.10680
H1274       H  0.98932696  0.11471541  0.19258600     0.09000
H1275       H  0.48458659  0.02624310  0.21369873     0.06530
H1276       H  0.57321172  0.10822615  0.18468017     0.06380
C1277       C  0.54376660  0.06021211  0.24684027     0.00850
C1278       C  0.56007762  0.04479370  0.24670122     0.00850
C1279       C  0.61197961  0.03257020  0.32126701     0.03420
C1280       C  0.59692894  0.99989657  0.31146623    -0.12730
C1281       C  0.56667913  0.48480401  0.29276054     0.00920
C1282       C  0.54973385  0.00085272  0.29521228    -0.11260
C1283       C  0.56737817  0.03348249  0.28760863     0.03410
C1284       C  0.59837160  0.04976571  0.30401245    -0.10680
H1285       H  0.60903895  0.48670749  0.31548952     0.09000
H1286       H  0.52526247  0.98833264  0.28479665     0.06530
H1287       H  0.61241963  0.07518751  0.30057726     0.06380
C1288       C  0.86971351  0.29007110  0.32297846     0.03420
C1289       C  0.85303573  0.30485369  0.30813521    -0.12730
C1290       C  0.86970490  0.33548519  0.29118170     0.00920
C1291       C  0.90268503  0.35199503  0.29628971    -0.11260
C1292       C  0.91742599  0.33394717  0.29143066     0.03410
C1293       C  0.90182808  0.30359230  0.30989813    -0.10680
H1294       H  0.82743311  0.29169687  0.30619361     0.09000
H1295       H  0.91560154  0.37636246  0.28572890     0.06530
H1296       H  0.91412317  0.29045455  0.31161757     0.06380
Fe1297     Fe  0.83062964  0.14181022  0.99805975     1.65780
Fe1298     Fe  0.76013267  0.14064767  0.50098699     1.73250
Fe1299     Fe  0.76074267  0.07125050  0.49853975     1.54410
O1300       O  0.79070694  0.06817031  0.45456541    -0.81390
O1301       O  0.73178730  0.11409450  0.05185787    -0.79690
O1302       O  0.83329190  0.11606222  0.44719042    -0.83890
O1303       O  0.83427865  0.11226318  0.04193302    -0.78750
O1304       O  0.73215181  0.06867121  0.44756780    -0.80520
O1305       O  0.78996626  0.17342347  0.04532962    -0.83270
C1306       C  0.81594242  0.08581969  0.05954424     0.97500
C1307       C  0.81698689  0.08711790  0.43713065     1.04940
O1308       O  0.78387290  0.11792678  0.49916132    -1.12250
O1309       O  0.78574509  0.17018596  0.45065654    -0.74680
O1310       O  0.83320895  0.17424777  0.45350024    -0.78170
O1311       O  0.78689685  0.06892077  0.04943841    -0.78860
C1312       C  0.81419737  0.18207993  0.43784941     0.96400
O1313       O  0.83399529  0.17075566  0.04910448    -0.76820
O1314       O  0.72695950  0.11093434  0.45663467    -0.82010
C1315       C  0.71931011  0.08502380  0.06122259     0.99020
C1316       C  0.71949441  0.08501745  0.43789134     1.04940
O1317       O  0.72725276  0.06701475  0.04257218    -0.77650
C1318       C  0.81697898  0.18212116  0.06141589     1.03240
C1319       C  0.87027533  0.28960574  0.17836225     0.03420
C1320       C  0.85322440  0.30401487  0.19363138    -0.12730
C1321       C  0.86962832  0.33491795  0.21011994     0.00920
C1322       C  0.90256767  0.35173125  0.20465724    -0.11260
C1323       C  0.91764974  0.33402610  0.20941180     0.03410
C1324       C  0.90250014  0.30373544  0.19085380    -0.10680
H1325       H  0.82765489  0.29051819  0.19602831     0.09000
H1326       H  0.91530092  0.37616709  0.21505451     0.06530
H1327       H  0.91528653  0.29109798  0.18875663     0.06380
C1328       C  0.61229267  0.03150553  0.17855612     0.03420
C1329       C  0.59600519  0.04792701  0.18765249    -0.12730
C1330       C  0.56568641  0.03163759  0.20612814     0.00920
C1331       C  0.54977677  0.99855954  0.20373557    -0.11260
C1332       C  0.56833577  0.98464594  0.21124075     0.03410
C1333       C  0.59933131  0.00045450  0.19490892    -0.10680
H1334       H  0.60690515  0.07309298  0.18278364     0.09000
H1335       H  0.52530159  0.98572713  0.21415555     0.06530
H1336       H  0.61385820  0.98959772  0.19738924     0.06380
C1337       C  0.53420905  0.36884568  0.32095833     0.03420
C1338       C  0.50255634  0.35092790  0.30620326    -0.12730
C1339       C  0.48685333  0.36627470  0.29082941     0.00920
C1340       C  0.50182168  0.39903250  0.29721779    -0.11260
C1341       C  0.53487618  0.41562874  0.29290540     0.03410
C1342       C  0.55111290  0.40144707  0.31054100    -0.10680
H1343       H  0.49105314  0.32542508  0.30394595     0.09000
H1344       H  0.48922738  0.41086600  0.28716644     0.06530
H1345       H  0.57646884  0.41562105  0.31392204     0.06380
C1346       C  0.53399436  0.36924372  0.17992793     0.03420
C1347       C  0.50191749  0.35147905  0.19283323    -0.12730
C1348       C  0.48676632  0.36693048  0.20989822     0.00920
C1349       C  0.50249959  0.39987605  0.20548904    -0.11260
C1350       C  0.53543596  0.41566437  0.21114496     0.03410
C1351       C  0.55153502  0.40123382  0.19339169    -0.10680
H1352       H  0.48966909  0.32588680  0.19242907     0.09000
H1353       H  0.49012746  0.41185732  0.21604217     0.06530
H1354       H  0.57709100  0.41451714  0.19177363     0.06380
Fe1355     Fe  0.57172968  0.25944076  0.50026626     1.65780
Fe1356     Fe  0.64188575  0.33001810  0.00026299     1.73250
Fe1357     Fe  0.64199692  0.25998607  0.00063145     1.54410
O1358       O  0.61315385  0.22770703  0.04621977    -0.81390
O1359       O  0.67240314  0.33322556  0.45148602    -0.79690
O1360       O  0.56857771  0.22961366  0.04954001    -0.83890
O1361       O  0.56872792  0.22775139  0.45352057    -0.78750
O1362       O  0.67171633  0.28712643  0.04938669    -0.80520
O1363       O  0.61343579  0.33284820  0.45304354    -0.83270
C1364       C  0.58723356  0.21897813  0.43841712     0.97500
C1365       C  0.58592614  0.21870143  0.06173541     1.04940
O1366       O  0.61854649  0.28317439  0.00041622    -1.12250
O1367       O  0.61448997  0.33304536  0.04902816    -0.74680
O1368       O  0.56825398  0.28799462  0.04625053    -0.78170
O1369       O  0.61533430  0.22988078  0.45180365    -0.78860
C1370       C  0.58614801  0.31540232  0.06158604     0.96400
O1371       O  0.56879324  0.28622790  0.45153940    -0.76820
O1372       O  0.67346353  0.33347870  0.04744324    -0.82010
C1373       C  0.68344111  0.31590766  0.43936533     0.99020
C1374       C  0.68244464  0.31521264  0.06259741     1.04940
O1375       O  0.67417405  0.28874517  0.45499977    -0.77650
C1376       C  0.58599330  0.31427451  0.43806659     1.03240
C1377       C  0.78966521  0.37066293  0.32136505     0.03420
C1378       C  0.80497129  0.35400029  0.30835663    -0.12730
C1379       C  0.83562536  0.37058273  0.29097619     0.00920
C1380       C  0.85194176  0.40353006  0.29555826    -0.11260
C1381       C  0.83371995  0.41804307  0.29022301     0.03410
C1382       C  0.80321236  0.40255754  0.30826486    -0.10680
H1383       H  0.79230532  0.32839975  0.30881201     0.09000
H1384       H  0.87641198  0.41646210  0.28515140     0.06530
H1385       H  0.79014500  0.41492218  0.31018932     0.06380
C1386       C  0.79022325  0.37017413  0.17755067     0.03420
C1387       C  0.80380510  0.40224959  0.18999921    -0.12730
C1388       C  0.83416298  0.41783922  0.20842863     0.00920
C1389       C  0.85223014  0.40305202  0.20414217    -0.11260
C1390       C  0.83565679  0.37017681  0.20963308     0.03410
C1391       C  0.80498668  0.35348931  0.19246396    -0.10680
H1392       H  0.79060774  0.41448429  0.18786854     0.09000
H1393       H  0.87665484  0.41601136  0.21469364     0.06530
H1394       H  0.79188829  0.32790745  0.19376826     0.06380
C1395       C  0.54745019  0.43439819  0.25214333     0.00850
C1396       C  0.56182831  0.46617224  0.25217778     0.00850
C1397       C  0.76043315  0.35469264  0.34814951    -0.05180
C1398       C  0.75948835  0.33527751  0.38211057    -0.32610
C1399       C  0.73427133  0.32210807  0.41120875     0.36640
C1400       C  0.70915417  0.32821600  0.40698547    -0.05540
C1401       C  0.70952869  0.34701544  0.37258335    -0.32510
C1402       C  0.73461972  0.35978627  0.34283153     0.36550
H1403       H  0.77905911  0.33118176  0.38722107     0.16920
O1404       O  0.73510625  0.30430427  0.44476961    -0.60000
H1405       H  0.69017372  0.35157885  0.36855644     0.16930
O1406       O  0.73336624  0.37684070  0.30864138    -0.60100
H1407       H  0.72598436  0.36198492  0.28384703     0.43930
H1408       H  0.74545902  0.31943336  0.46887758     0.43880
C1409       C  0.76073908  0.35394353  0.15126527    -0.05180
C1410       C  0.73687478  0.36190184  0.15540916    -0.32610
C1411       C  0.71082244  0.34912064  0.12734143     0.36640
C1412       C  0.70793567  0.32750945  0.09512554    -0.05540
C1413       C  0.73099309  0.31862005  0.09207654    -0.32510
C1414       C  0.75739771  0.33196653  0.11906988     0.36550
H1415       H  0.73840031  0.37823540  0.18016093     0.16920
O1416       O  0.68850990  0.35809514  0.13147257    -0.60000
H1417       H  0.72940060  0.30236479  0.06706993     0.16930
O1418       O  0.78052622  0.32439657  0.11212330    -0.60100
H1419       H  0.79583150  0.34085475  0.09219532     0.43930
H1420       H  0.67174859  0.34178625  0.15010129     0.43820
C1421       C  0.57277568  0.32765746  0.09408020    -0.05180
C1422       C  0.59174584  0.34780547  0.12738995    -0.32610
C1423       C  0.57942434  0.36058600  0.15706549     0.36640
C1424       C  0.54789150  0.35408194  0.15279173    -0.05540
C1425       C  0.52901047  0.33350221  0.11976635    -0.32510
C1426       C  0.54105327  0.32032537  0.09084273     0.36550
H1427       H  0.61610983  0.35342270  0.13064694     0.16920
O1428       O  0.59834260  0.37895688  0.19019425    -0.60000
H1429       H  0.50488496  0.32834445  0.11525591     0.16930
O1430       O  0.52185581  0.30129473  0.05832262    -0.60100
H1431       H  0.52450426  0.31591552  0.03449731     0.43930
H1432       H  0.59197263  0.36471317  0.21554921     0.43880
C1433       C  0.57283120  0.32615743  0.40487092    -0.05180
C1434       C  0.59293600  0.34971235  0.37572676    -0.32610
C1435       C  0.58096378  0.36298737  0.34642409     0.36640
C1436       C  0.54832200  0.35322944  0.34678155    -0.05540
C1437       C  0.52830771  0.32885388  0.37515925    -0.32510
C1438       C  0.54012170  0.31523311  0.40352422     0.36550
H1439       H  0.61806282  0.35783499  0.37554607     0.16920
O1440       O  0.60111873  0.38426649  0.31651798    -0.60000
H1441       H  0.50326199  0.32092938  0.37679730     0.16930
O1442       O  0.51946132  0.29202560  0.43102292    -0.60100
H1443       H  0.51711945  0.30339874  0.45596951     0.43930
H1444       H  0.61652258  0.40305561  0.33328577     0.43880
C1445       C  0.64193578  0.04574533  0.15241989    -0.05180
C1446       C  0.64566276  0.02630204  0.12243962    -0.32610
C1447       C  0.67107730  0.03856853  0.09366156     0.36640
C1448       C  0.69372302  0.07114566  0.09406833    -0.05540
C1449       C  0.69079809  0.09054055  0.12502781    -0.32510
C1450       C  0.66531577  0.07812399  0.15424235     0.36550
H1451       H  0.62801994  0.00144079  0.12001051     0.16920
O1452       O  0.67280566  0.01848154  0.06429009    -0.60000
H1453       H  0.70830863  0.11548114  0.12661713     0.16930
O1454       O  0.66431489  0.09751653  0.18546748    -0.60100
H1455       H  0.66127925  0.11343900  0.16979949     0.43930
H1456       H  0.66040241  0.01851852  0.03900922     0.43880
C1457       C  0.82926756  0.20762843  0.09433878    -0.05180
C1458       C  0.81798902  0.22889542  0.09417711    -0.32610
C1459       C  0.83041477  0.25489695  0.12198266     0.36640
C1460       C  0.85437584  0.25996946  0.15190688    -0.05540
C1461       C  0.86472146  0.23779341  0.15328643    -0.32510
C1462       C  0.85283717  0.21222461  0.12436925     0.36550
H1463       H  0.80028364  0.22625569  0.07090614     0.16920
O1464       O  0.82063106  0.27650670  0.11702442    -0.60000
H1465       H  0.88235649  0.24023936  0.17642447     0.16930
O1466       O  0.86414494  0.19168704  0.12621042    -0.60100
H1467       H  0.88421438  0.20203124  0.10954893     0.43930
H1468       H  0.79872781  0.26609302  0.12861633     0.43880
C1469       C  0.82623521  0.20737481  0.40499973    -0.05180
C1470       C  0.81619920  0.22954166  0.40654337    -0.32610
C1471       C  0.82966811  0.25602074  0.37961512     0.36640
C1472       C  0.85320823  0.26043106  0.34914570    -0.05540
C1473       C  0.86219670  0.23729599  0.34640443    -0.32510
C1474       C  0.84938119  0.21133242  0.37451966     0.36550
H1475       H  0.79895457  0.22728140  0.43044076     0.16920
O1476       O  0.82143353  0.27869715  0.38598441    -0.60000
H1477       H  0.87947525  0.23931371  0.32284682     0.16930
O1478       O  0.85930835  0.18971653  0.37151354    -0.60100
H1479       H  0.87969000  0.19930587  0.38738097     0.43930
H1480       H  0.79946798  0.26933787  0.37494934     0.43880
C1481       C  0.69405950  0.07321287  0.40477579    -0.05180
C1482       C  0.67270629  0.08446944  0.40535604    -0.32610
C1483       C  0.64677453  0.07232115  0.37738167     0.36640
C1484       C  0.64175667  0.04856114  0.34722890    -0.05540
C1485       C  0.66399999  0.03832438  0.34524315    -0.32510
C1486       C  0.68963924  0.05007275  0.37400866     0.36550
H1487       H  0.67524475  0.10195391  0.42895990     0.16920
O1488       O  0.62513246  0.08212506  0.38230645    -0.60000
H1489       H  0.66142623  0.02079973  0.32175945     0.16930
O1490       O  0.71034186  0.03895934  0.37139373    -0.60100
H1491       H  0.69999495  0.01868782  0.38742682     0.43930
H1492       H  0.63541711  0.10373981  0.36999481     0.43880
C1493       C  0.57301512  0.19255220  0.09276796    -0.05180
C1494       C  0.56696592  0.16294307  0.07826578    -0.32610
C1495       C  0.55343559  0.13688848  0.10573743     0.36640
C1496       C  0.54630724  0.14030713  0.14872398    -0.05540
C1497       C  0.55243401  0.16999428  0.16352104    -0.32510
C1498       C  0.56591015  0.19619153  0.13570380     0.36550
H1499       H  0.57206085  0.15986862  0.04511404     0.16920
O1500       O  0.54650880  0.10789042  0.08999623    -0.60000
H1501       H  0.54689311  0.17281178  0.19652549     0.16930
O1502       O  0.57218396  0.22514477  0.15068461    -0.60100
H1503       H  0.59456359  0.23585439  0.16036472     0.43930
H1504       H  0.52408936  0.09763157  0.08057496     0.43880
C1505       C  0.54903916  0.14166577  0.34813278    -0.05180
C1506       C  0.54181227  0.16596451  0.34384574    -0.32610
C1507       C  0.55452833  0.19170826  0.37242400     0.36640
C1508       C  0.57520598  0.19374471  0.40548779    -0.05540
C1509       C  0.58338415  0.17021351  0.40875012    -0.32510
C1510       C  0.57016189  0.14416138  0.38105184     0.36550
H1511       H  0.52606999  0.16496668  0.31857179     0.16920
O1512       O  0.54643988  0.21460212  0.36792040    -0.60000
H1513       H  0.59895772  0.17120733  0.43433995     0.16930
O1514       O  0.57692824  0.12052427  0.38794017    -0.60100
H1515       H  0.55982945  0.10521713  0.40715241     0.43930
H1516       H  0.56345934  0.23122801  0.34993596     0.43880
C1517       C  0.85467168  0.04890019  0.15205484    -0.05180
C1518       C  0.87339818  0.06862080  0.11836561    -0.32610
C1519       C  0.86124254  0.08124519  0.08886998     0.36640
C1520       C  0.82951650  0.07401948  0.09220432    -0.05540
C1521       C  0.81077743  0.05474719  0.12626871    -0.32510
C1522       C  0.82323068  0.04255211  0.15642965     0.36550
H1523       H  0.89741827  0.07342966  0.11382143     0.16920
O1524       O  0.88003599  0.09891733  0.05516831    -0.60000
H1525       H  0.78646650  0.04927929  0.12969131     0.16930
O1526       O  0.80450783  0.02466340  0.18998476    -0.60100
H1527       H  0.80635734  0.04012001  0.21216201     0.43930
H1528       H  0.89349367  0.12047002  0.06711099     0.43880
C1529       C  0.83032115  0.07410647  0.40663498    -0.05180
C1530       C  0.82625860  0.07514265  0.36196078    -0.32610
C1531       C  0.83865421  0.06181786  0.33338980     0.36640
C1532       C  0.85508983  0.04739531  0.34980217    -0.05540
C1533       C  0.85914143  0.04656022  0.39438382    -0.32510
C1534       C  0.84670052  0.05961035  0.42279182     0.36550
H1535       H  0.81342357  0.08609491  0.34940123     0.16920
O1536       O  0.83437212  0.06269884  0.28981307    -0.60000
H1537       H  0.87192526  0.03560300  0.40717059     0.16930
O1538       O  0.85106010  0.05855190  0.46636921    -0.60100
H1539       H  0.83237684  0.03867452  0.47642409     0.43930
H1540       H  0.85398633  0.08146340  0.27925526     0.43880
C1541       C  0.85766119  0.34200829  0.75056040     0.00850
C1542       C  0.84227685  0.35831393  0.75041489     0.00850
C1543       C  0.96785413  0.35414937  0.75036701     0.00850
C1544       C  0.93598453  0.33936883  0.75044020     0.00850
C1545       C  0.96579945  0.06377530  0.75068633     0.00850
C1546       C  0.93393006  0.04790146  0.75095791     0.00850
C1547       C  0.86885670  0.03326918  0.82180694     0.03420
C1548       C  0.90101650  0.05078990  0.81006126    -0.12730
C1549       C  0.91542903  0.03499084  0.79172503     0.00920
C1550       C  0.89909523  0.00195254  0.79557093    -0.11260
C1551       C  0.86613935  0.98677357  0.78993056     0.03410
C1552       C  0.85061428  0.00176052  0.80755864    -0.10680
H1553       H  0.91379309  0.07634136  0.81229016     0.09000
H1554       H  0.91107182  0.98962760  0.78483383     0.06530
H1555       H  0.82498841  0.98987805  0.80799698     0.06380
C1556       C  0.86828133  0.03372971  0.67926359     0.03420
C1557       C  0.90001015  0.05142810  0.69362617    -0.12730
C1558       C  0.91496799  0.03569211  0.71031692     0.00920
C1559       C  0.89950435  0.00287883  0.70416587    -0.11260
C1560       C  0.86643545  0.98680001  0.70847940     0.03410
C1561       C  0.85065538  0.00143518  0.69079305    -0.10680
H1562       H  0.91210677  0.07700998  0.69421917     0.09000
H1563       H  0.91175469  0.99071161  0.71423742     0.06530
H1564       H  0.82515162  0.98808133  0.68788799     0.06380
C1565       C  0.85369454  0.46806814  0.74916014     0.00850
C1566       C  0.83920304  0.43632027  0.74921635     0.00850
C1567       C  0.53269822  0.11251076  0.82130570     0.03420
C1568       C  0.54928396  0.09783604  0.80538168    -0.12730
C1569       C  0.53230135  0.06727457  0.78792112     0.00920
C1570       C  0.49944481  0.05073729  0.79445576    -0.11260
C1571       C  0.98457043  0.06876003  0.79110978     0.03410
C1572       C  0.50045397  0.09905924  0.80959590    -0.10680
H1573       H  0.57491889  0.11081332  0.80390741     0.09000
H1574       H  0.48630172  0.02633491  0.78399899     0.06530
H1575       H  0.98829737  0.11230597  0.81249683     0.06380
C1576       C  0.53127164  0.11217535  0.67664332     0.03420
C1577       C  0.50017236  0.10013062  0.69223767    -0.12730
C1578       C  0.98409494  0.06950274  0.70964518     0.00920
C1579       C  0.49781734  0.05059726  0.70316173    -0.11260
C1580       C  0.53093730  0.06619292  0.70629818     0.03410
C1581       C  0.54766658  0.09631983  0.68761950    -0.10680
H1582       H  0.98932694  0.11471541  0.69258601     0.09000
H1583       H  0.48458658  0.02624310  0.71369872     0.06530
H1584       H  0.57321171  0.10822615  0.68468016     0.06380
C1585       C  0.54376659  0.06021211  0.74684026     0.00850
C1586       C  0.56007759  0.04479368  0.74670121     0.00850
C1587       C  0.61197960  0.03257021  0.82126700     0.03420
C1588       C  0.59692894  0.99989658  0.81146622    -0.12730
C1589       C  0.56667913  0.48480401  0.79276054     0.00920
C1590       C  0.54973383  0.00085271  0.79521227    -0.11260
C1591       C  0.56737814  0.03348248  0.78760862     0.03410
C1592       C  0.59837158  0.04976572  0.80401244    -0.10680
H1593       H  0.60903895  0.48670750  0.81548952     0.09000
H1594       H  0.52526246  0.98833262  0.78479664     0.06530
H1595       H  0.61241959  0.07518751  0.80057725     0.06380
C1596       C  0.86971352  0.29007108  0.82297845     0.03420
C1597       C  0.85303573  0.30485366  0.80813520    -0.12730
C1598       C  0.86970488  0.33548516  0.79118169     0.00920
C1599       C  0.90268501  0.35199501  0.79628971    -0.11260
C1600       C  0.91742599  0.33394717  0.79143066     0.03410
C1601       C  0.90182809  0.30359230  0.80989813    -0.10680
H1602       H  0.82743311  0.29169683  0.80619361     0.09000
H1603       H  0.91560151  0.37636244  0.78572890     0.06530
H1604       H  0.91412320  0.29045455  0.81161758     0.06380
Fe1605     Fe  0.83062963  0.14181023  0.49805965     1.65780
Fe1606     Fe  0.76013266  0.14064767  0.00098700     1.73250
Fe1607     Fe  0.76074265  0.07125047  0.99853969     1.54410
O1608       O  0.79070680  0.06817032  0.95456511    -0.81390
O1609       O  0.73178741  0.11409458  0.55185799    -0.79690
O1610       O  0.83329201  0.11606213  0.94719073    -0.83890
O1611       O  0.83427869  0.11226310  0.54193274    -0.78750
O1612       O  0.73215169  0.06867119  0.94756788    -0.80520
O1613       O  0.78996636  0.17342355  0.54532946    -0.83270
C1614       C  0.81594243  0.08581971  0.55954420     0.97500
C1615       C  0.81698688  0.08711788  0.93713064     1.04940
O1616       O  0.78387289  0.11792677  0.99916133    -1.12250
O1617       O  0.78574518  0.17018604  0.95065668    -0.74680
O1618       O  0.83320897  0.17424767  0.95350017    -0.78170
O1619       O  0.78689680  0.06892088  0.54943862    -0.78860
C1620       C  0.81419743  0.18207992  0.93784944     0.96400
O1621       O  0.83399529  0.17075557  0.54910453    -0.76820
O1622       O  0.72695956  0.11093444  0.95663454    -0.82010
C1623       C  0.71931011  0.08502386  0.56122259     0.99020
C1624       C  0.71949439  0.08501750  0.93789131     1.04940
O1625       O  0.72725268  0.06701478  0.54257207    -0.77650
C1626       C  0.81697904  0.18212116  0.56141584     1.03240
C1627       C  0.87027534  0.28960572  0.67836224     0.03420
C1628       C  0.85322440  0.30401484  0.69363137    -0.12730
C1629       C  0.86962831  0.33491792  0.71011994     0.00920
C1630       C  0.90256766  0.35173124  0.70465723    -0.11260
C1631       C  0.91764974  0.33402610  0.70941180     0.03410
C1632       C  0.90250016  0.30373543  0.69085379    -0.10680
H1633       H  0.82765489  0.29051816  0.69602828     0.09000
H1634       H  0.91530090  0.37616707  0.71505451     0.06530
H1635       H  0.91528655  0.29109798  0.68875663     0.06380
C1636       C  0.61229266  0.03150554  0.67855611     0.03420
C1637       C  0.59600517  0.04792701  0.68765247    -0.12730
C1638       C  0.56568639  0.03163758  0.70612812     0.00920
C1639       C  0.54977677  0.99855953  0.70373556    -0.11260
C1640       C  0.56833577  0.98464595  0.71124074     0.03410
C1641       C  0.59933132  0.00045451  0.69490892    -0.10680
H1642       H  0.60690511  0.07309298  0.68278363     0.09000
H1643       H  0.52530158  0.98572711  0.71415554     0.06530
H1644       H  0.61385822  0.98959775  0.69738924     0.06380
C1645       C  0.53420904  0.36884568  0.82095833     0.03420
C1646       C  0.50255633  0.35092790  0.80620327    -0.12730
C1647       C  0.48685333  0.36627470  0.79082941     0.00920
C1648       C  0.50182168  0.39903250  0.79721779    -0.11260
C1649       C  0.53487618  0.41562874  0.79290540     0.03410
C1650       C  0.55111290  0.40144707  0.81054099    -0.10680
H1651       H  0.49105313  0.32542508  0.80394597     0.09000
H1652       H  0.48922738  0.41086601  0.78716644     0.06530
H1653       H  0.57646884  0.41562104  0.81392203     0.06380
C1654       C  0.53399436  0.36924372  0.67992793     0.03420
C1655       C  0.50191749  0.35147904  0.69283323    -0.12730
C1656       C  0.48676633  0.36693048  0.70989822     0.00920
C1657       C  0.50249959  0.39987604  0.70548904    -0.11260
C1658       C  0.53543596  0.41566437  0.71114496     0.03410
C1659       C  0.55153502  0.40123382  0.69339169    -0.10680
H1660       H  0.48966909  0.32588680  0.69242908     0.09000
H1661       H  0.49012746  0.41185731  0.71604217     0.06530
H1662       H  0.57709100  0.41451714  0.69177362     0.06380
Fe1663     Fe  0.57172968  0.25944076  0.00026626     1.65780
Fe1664     Fe  0.64188575  0.33001810  0.50026299     1.73250
Fe1665     Fe  0.64199692  0.25998607  0.50063145     1.54410
O1666       O  0.61315385  0.22770704  0.54621977    -0.81390
O1667       O  0.67240314  0.33322555  0.95148602    -0.79690
O1668       O  0.56857771  0.22961367  0.54954000    -0.83890
O1669       O  0.56872792  0.22775139  0.95352057    -0.78750
O1670       O  0.67171634  0.28712643  0.54938669    -0.80520
O1671       O  0.61343579  0.33284820  0.95304354    -0.83270
C1672       C  0.58723356  0.21897813  0.93841712     0.97500
C1673       C  0.58592614  0.21870144  0.56173541     1.04940
O1674       O  0.61854649  0.28317439  0.50041622    -1.12250
O1675       O  0.61448997  0.33304536  0.54902816    -0.74680
O1676       O  0.56825398  0.28799462  0.54625053    -0.78170
O1677       O  0.61533430  0.22988078  0.95180365    -0.78860
C1678       C  0.58614800  0.31540232  0.56158604     0.96400
O1679       O  0.56879324  0.28622791  0.95153941    -0.76820
O1680       O  0.67346353  0.33347870  0.54744324    -0.82010
C1681       C  0.68344111  0.31590766  0.93936533     0.99020
C1682       C  0.68244464  0.31521264  0.56259741     1.04940
O1683       O  0.67417405  0.28874517  0.95499977    -0.77650
C1684       C  0.58599330  0.31427452  0.93806659     1.03240
C1685       C  0.78966521  0.37066292  0.82136505     0.03420
C1686       C  0.80497129  0.35400028  0.80835662    -0.12730
C1687       C  0.83562536  0.37058271  0.79097618     0.00920
C1688       C  0.85194176  0.40353005  0.79555826    -0.11260
C1689       C  0.83371996  0.41804306  0.79022301     0.03410
C1690       C  0.80321237  0.40255753  0.80826486    -0.10680
H1691       H  0.79230531  0.32839974  0.80881200     0.09000
H1692       H  0.87641198  0.41646208  0.78515139     0.06530
H1693       H  0.79014501  0.41492217  0.81018932     0.06380
C1694       C  0.79022325  0.37017412  0.67755066     0.03420
C1695       C  0.80380511  0.40224958  0.68999920    -0.12730
C1696       C  0.83416298  0.41783921  0.70842863     0.00920
C1697       C  0.85223014  0.40305200  0.70414217    -0.11260
C1698       C  0.83565679  0.37017679  0.70963307     0.03410
C1699       C  0.80498668  0.35348930  0.69246395    -0.10680
H1700       H  0.79060774  0.41448428  0.68786854     0.09000
H1701       H  0.87665484  0.41601134  0.71469364     0.06530
H1702       H  0.79188829  0.32790744  0.69376824     0.06380
C1703       C  0.54745020  0.43439819  0.75214333     0.00850
C1704       C  0.56182831  0.46617224  0.75217778     0.00850
C1705       C  0.76043315  0.35469263  0.84814951    -0.05180
C1706       C  0.75948835  0.33527749  0.88211057    -0.32610
C1707       C  0.73427132  0.32210806  0.91120875     0.36640
C1708       C  0.70915417  0.32821600  0.90698547    -0.05540
C1709       C  0.70952869  0.34701544  0.87258335    -0.32510
C1710       C  0.73461973  0.35978626  0.84283153     0.36550
H1711       H  0.77905911  0.33118175  0.88722107     0.16920
O1712       O  0.73510624  0.30430426  0.94476960    -0.60000
H1713       H  0.69017373  0.35157885  0.86855645     0.16930
O1714       O  0.73336625  0.37684071  0.80864139    -0.60100
H1715       H  0.72598437  0.36198492  0.78384704     0.43930
H1716       H  0.74545902  0.31943335  0.96887758     0.43880
C1717       C  0.76073909  0.35394353  0.65126526    -0.05180
C1718       C  0.73687479  0.36190183  0.65540916    -0.32610
C1719       C  0.71082244  0.34912063  0.62734143     0.36640
C1720       C  0.70793567  0.32750945  0.59512554    -0.05540
C1721       C  0.73099309  0.31862006  0.59207653    -0.32510
C1722       C  0.75739772  0.33196653  0.61906986     0.36550
H1723       H  0.73840031  0.37823538  0.68016094     0.16920
O1724       O  0.68850990  0.35809513  0.63147258    -0.60000
H1725       H  0.72940061  0.30236480  0.56706991     0.16930
O1726       O  0.78052623  0.32439658  0.61212327    -0.60100
H1727       H  0.79583150  0.34085476  0.59219529     0.43930
H1728       H  0.67174859  0.34178623  0.65010130     0.43820
C1729       C  0.57277568  0.32765745  0.59408021    -0.05180
C1730       C  0.59174585  0.34780547  0.62738995    -0.32610
C1731       C  0.57942434  0.36058600  0.65706548     0.36640
C1732       C  0.54789149  0.35408194  0.65279174    -0.05540
C1733       C  0.52901047  0.33350220  0.61976636    -0.32510
C1734       C  0.54105327  0.32032536  0.59084274     0.36550
H1735       H  0.61610984  0.35342270  0.63064693     0.16920
O1736       O  0.59834261  0.37895688  0.69019425    -0.60000
H1737       H  0.50488495  0.32834443  0.61525592     0.16930
O1738       O  0.52185580  0.30129472  0.55832264    -0.60100
H1739       H  0.52450425  0.31591550  0.53449732     0.43930
H1740       H  0.59197264  0.36471317  0.71554920     0.43880
C1741       C  0.57283120  0.32615743  0.90487092    -0.05180
C1742       C  0.59293599  0.34971234  0.87572675    -0.32610
C1743       C  0.58096378  0.36298736  0.84642408     0.36640
C1744       C  0.54832200  0.35322944  0.84678155    -0.05540
C1745       C  0.52830771  0.32885389  0.87515927    -0.32510
C1746       C  0.54012170  0.31523312  0.90352425     0.36550
H1747       H  0.61806281  0.35783497  0.87554606     0.16920
O1748       O  0.60111872  0.38426647  0.81651796    -0.60000
H1749       H  0.50326199  0.32092940  0.87679733     0.16930
O1750       O  0.51946132  0.29202563  0.93102296    -0.60100
H1751       H  0.51711945  0.30339878  0.95596953     0.43930
H1752       H  0.61652258  0.40305559  0.83328574     0.43880
C1753       C  0.64193577  0.04574536  0.65241988    -0.05180
C1754       C  0.64566276  0.02630208  0.62243961    -0.32610
C1755       C  0.67107730  0.03856857  0.59366155     0.36640
C1756       C  0.69372301  0.07114571  0.59406832    -0.05540
C1757       C  0.69079807  0.09054059  0.62502779    -0.32510
C1758       C  0.66531575  0.07812403  0.65424233     0.36550
H1759       H  0.62801995  0.00144082  0.62001051     0.16920
O1760       O  0.67280567  0.01848158  0.56429010    -0.60000
H1761       H  0.70830860  0.11548119  0.62661711     0.16930
O1762       O  0.66431486  0.09751657  0.68546746    -0.60100
H1763       H  0.66127920  0.11343902  0.66979947     0.43930
H1764       H  0.66040241  0.01851854  0.53900923     0.43880
C1765       C  0.82926763  0.20762844  0.59433873    -0.05180
C1766       C  0.81798909  0.22889543  0.59417704    -0.32610
C1767       C  0.83041482  0.25489695  0.62198261     0.36640
C1768       C  0.85437587  0.25996945  0.65190685    -0.05540
C1769       C  0.86472150  0.23779340  0.65328641    -0.32510
C1770       C  0.85283721  0.21222461  0.62436922     0.36550
H1771       H  0.80028372  0.22625571  0.57090605     0.16920
O1772       O  0.82063111  0.27650670  0.61702437    -0.60000
H1773       H  0.88235651  0.24023935  0.67642447     0.16930
O1774       O  0.86414498  0.19168704  0.62621041    -0.60100
H1775       H  0.88421443  0.20203123  0.60954893     0.43930
H1776       H  0.79872786  0.26609302  0.62861626     0.43880
C1777       C  0.82623527  0.20737481  0.90499976    -0.05180
C1778       C  0.81619926  0.22954166  0.90654340    -0.32610
C1779       C  0.82966815  0.25602072  0.87961513     0.36640
C1780       C  0.85320826  0.26043105  0.84914571    -0.05540
C1781       C  0.86219674  0.23729598  0.84640443    -0.32510
C1782       C  0.84938124  0.21133241  0.87451967     0.36550
H1783       H  0.79895463  0.22728139  0.93044080     0.16920
O1784       O  0.82143356  0.27869713  0.88598442    -0.60000
H1785       H  0.87947528  0.23931370  0.82284682     0.16930
O1786       O  0.85930841  0.18971653  0.87151354    -0.60100
H1787       H  0.87969006  0.19930588  0.88738097     0.43930
H1788       H  0.79946800  0.26933784  0.87494936     0.43880
C1789       C  0.69405949  0.07321293  0.90477576    -0.05180
C1790       C  0.67270628  0.08446949  0.90535600    -0.32610
C1791       C  0.64677452  0.07232118  0.87738165     0.36640
C1792       C  0.64175666  0.04856117  0.84722888    -0.05540
C1793       C  0.66399999  0.03832442  0.84524313    -0.32510
C1794       C  0.68963924  0.05007280  0.87400863     0.36550
H1795       H  0.67524474  0.10195397  0.92895987     0.16920
O1796       O  0.62513243  0.08212509  0.88230642    -0.60000
H1797       H  0.66142623  0.02079977  0.82175943     0.16930
O1798       O  0.71034187  0.03895941  0.87139370    -0.60100
H1799       H  0.69999496  0.01868788  0.88742677     0.43930
H1800       H  0.63541707  0.10373983  0.86999479     0.43880
C1801       C  0.57301512  0.19255221  0.59276796    -0.05180
C1802       C  0.56696592  0.16294308  0.57826579    -0.32610
C1803       C  0.55343558  0.13688848  0.60573743     0.36640
C1804       C  0.54630723  0.14030713  0.64872397    -0.05540
C1805       C  0.55243401  0.16999428  0.66352104    -0.32510
C1806       C  0.56591015  0.19619153  0.63570380     0.36550
H1807       H  0.57206086  0.15986862  0.54511405     0.16920
O1808       O  0.54650880  0.10789042  0.58999624    -0.60000
H1809       H  0.54689310  0.17281179  0.69652548     0.16930
O1810       O  0.57218396  0.22514478  0.65068461    -0.60100
H1811       H  0.59456359  0.23585439  0.66036471     0.43930
H1812       H  0.52408936  0.09763158  0.58057496     0.43880
C1813       C  0.54903917  0.14166578  0.84813277    -0.05180
C1814       C  0.54181227  0.16596451  0.84384573    -0.32610
C1815       C  0.55452833  0.19170826  0.87242400     0.36640
C1816       C  0.57520598  0.19374472  0.90548779    -0.05540
C1817       C  0.58338416  0.17021352  0.90875011    -0.32510
C1818       C  0.57016189  0.14416139  0.88105183     0.36550
H1819       H  0.52606999  0.16496669  0.81857179     0.16920
O1820       O  0.54643987  0.21460212  0.86792040    -0.60000
H1821       H  0.59895772  0.17120733  0.93433994     0.16930
O1822       O  0.57692824  0.12052428  0.88794016    -0.60100
H1823       H  0.55982946  0.10521714  0.90715239     0.43930
H1824       H  0.56345934  0.23122802  0.84993597     0.43880
C1825       C  0.85467172  0.04890024  0.65205483    -0.05180
C1826       C  0.87339821  0.06862084  0.61836560    -0.32610
C1827       C  0.86124257  0.08124521  0.58886995     0.36640
C1828       C  0.82951653  0.07401951  0.59220428    -0.05540
C1829       C  0.81077747  0.05474724  0.62626869    -0.32510
C1830       C  0.82323072  0.04255216  0.65642964     0.36550
H1831       H  0.89741831  0.07342969  0.61382142     0.16920
O1832       O  0.88003602  0.09891733  0.55516825    -0.60000
H1833       H  0.78646654  0.04927934  0.62969130     0.16930
O1834       O  0.80450786  0.02466344  0.68998475    -0.60100
H1835       H  0.80635679  0.04012005  0.71216160     0.43930
H1836       H  0.89349370  0.12047003  0.56711091     0.43880
C1837       C  0.83032118  0.07410650  0.90663496    -0.05180
C1838       C  0.82625777  0.07514178  0.86196083    -0.32610
C1839       C  0.83865344  0.06181705  0.83338987     0.36640
C1840       C  0.85508997  0.04739544  0.84980218    -0.05540
C1841       C  0.85914242  0.04656123  0.89438376    -0.32510
C1842       C  0.84670145  0.05961130  0.92279175     0.36550
H1843       H  0.81342205  0.08609334  0.84940132     0.16920
O1844       O  0.83437058  0.06269724  0.78981320    -0.60000
H1845       H  0.87192690  0.03560467  0.90717050     0.16930
O1846       O  0.85106173  0.05855359  0.96636909    -0.60100
H1847       H  0.83237880  0.03867622  0.97642468     0.43930
H1848       H  0.85398443  0.08146184  0.77925463     0.43880
C1849       C  0.85765983  0.84200741  0.25056087     0.00850
C1850       C  0.84227677  0.85831433  0.25041507     0.00850
C1851       C  0.96785352  0.85414919  0.25036754     0.00850
C1852       C  0.93598396  0.83936939  0.25044086     0.00850
C1853       C  0.96580123  0.56377476  0.25068708     0.00850
C1854       C  0.93393183  0.54790040  0.25095873     0.00850
C1855       C  0.86885889  0.53326828  0.32180874     0.03420
C1856       C  0.90101863  0.55078888  0.31006264    -0.12730
C1857       C  0.91543088  0.53498970  0.29172591     0.00920
C1858       C  0.89909690  0.50195138  0.29557163    -0.11260
C1859       C  0.86614101  0.48677264  0.28993157     0.03410
C1860       C  0.85061622  0.50175968  0.30756031    -0.10680
H1861       H  0.91379533  0.57634034  0.31229156     0.09000
H1862       H  0.91107329  0.48962630  0.28483427     0.06530
H1863       H  0.82499036  0.48987737  0.30799888     0.06380
C1864       C  0.86828325  0.53372915  0.17926442     0.03420
C1865       C  0.90001210  0.55142733  0.19362699    -0.12730
C1866       C  0.91496973  0.53569113  0.21031776     0.00920
C1867       C  0.89950584  0.50287784  0.20416671    -0.11260
C1868       C  0.86643694  0.48679927  0.20848027     0.03410
C1869       C  0.85065710  0.50143462  0.19079383    -0.10680
H1870       H  0.91210889  0.57700922  0.19422002     0.09000
H1871       H  0.91175601  0.49071043  0.21423814     0.06530
H1872       H  0.82515334  0.48808092  0.18788872     0.06380
C1873       C  0.85369335  0.96806884  0.24915933     0.00850
C1874       C  0.83920345  0.93632106  0.24921573     0.00850
C1875       C  0.53269970  0.61251081  0.32130655     0.03420
C1876       C  0.54928586  0.59783655  0.30538251    -0.12730
C1877       C  0.53230366  0.56727509  0.28792184     0.00920
C1878       C  0.49944712  0.55073736  0.29445641    -0.11260
C1879       C  0.98457228  0.56875970  0.29111050     0.03410
C1880       C  0.50045541  0.59905887  0.30959672    -0.10680
H1881       H  0.57492079  0.61081416  0.30390831     0.09000
H1882       H  0.48630435  0.52633499  0.28399954     0.06530
H1883       H  0.98829848  0.61230528  0.31249769     0.06380
C1884       C  0.53127321  0.61217572  0.17664406     0.03420
C1885       C  0.50017384  0.60013050  0.19223842    -0.12730
C1886       C  0.98409682  0.56950258  0.20964589     0.00920
C1887       C  0.49781972  0.55059755  0.20316238    -0.11260
C1888       C  0.53093970  0.56619367  0.20629890     0.03410
C1889       C  0.54766860  0.59632064  0.18762031    -0.10680
H1890       H  0.98932804  0.61471495  0.19258676     0.09000
H1891       H  0.48458928  0.52624335  0.21369927     0.06530
H1892       H  0.57321374  0.60822732  0.18468100     0.06380
C1893       C  0.54376916  0.56021298  0.24684094     0.00850
C1894       C  0.56008026  0.54479464  0.24670184     0.00850
C1895       C  0.61198151  0.53257001  0.32126779     0.03420
C1896       C  0.59693043  0.49989637  0.31146686    -0.12730
C1897       C  0.56667760  0.98480377  0.29276006     0.00920
C1898       C  0.54973580  0.50085339  0.29521276    -0.11260
C1899       C  0.56738055  0.53348314  0.28760921     0.03410
C1900       C  0.59837398  0.54976594  0.30401312    -0.10680
H1901       H  0.60903780  0.98670802  0.31548887     0.09000
H1902       H  0.52526445  0.48833364  0.28479702     0.06530
H1903       H  0.61242233  0.57518772  0.30057798     0.06380
C1904       C  0.86971350  0.79007100  0.32297926     0.03420
C1905       C  0.85303509  0.80485289  0.30813566    -0.12730
C1906       C  0.86970370  0.83548447  0.29118219     0.00920
C1907       C  0.90268384  0.85199495  0.29629025    -0.11260
C1908       C  0.91742547  0.83394769  0.29143140     0.03410
C1909       C  0.90182818  0.80359293  0.30989916    -0.10680
H1910       H  0.82743250  0.79169554  0.30619386     0.09000
H1911       H  0.91559991  0.87636236  0.28572932     0.06530
H1912       H  0.91412387  0.79045576  0.31161889     0.06380
Fe1913     Fe  0.83063174  0.64181006  0.99806066     1.65780
Fe1914     Fe  0.76013458  0.64064704  0.50098774     1.73250
Fe1915     Fe  0.76074492  0.57125009  0.49854069     1.54410
O1916       O  0.79070940  0.56817007  0.45456652    -0.81390
O1917       O  0.73178954  0.61409402  0.05185887    -0.79690
O1918       O  0.83329421  0.61606210  0.44719145    -0.83890
O1919       O  0.83428092  0.61226298  0.04193378    -0.78750
O1920       O  0.73215398  0.56867055  0.44756863    -0.80520
O1921       O  0.78996814  0.67342306  0.04533004    -0.83270
C1922       C  0.81594469  0.58581956  0.05954524     0.97500
C1923       C  0.81698936  0.58711772  0.43713182     1.04940
O1924       O  0.78387500  0.61792638  0.49916218    -1.12250
O1925       O  0.78574684  0.67018528  0.45065720    -0.74680
O1926       O  0.83321095  0.67424767  0.45350127    -0.78170
O1927       O  0.78689908  0.56892066  0.04943961    -0.78860
C1928       C  0.81419922  0.68207962  0.43785033     0.96400
O1929       O  0.83399718  0.67075532  0.04910561    -0.76820
O1930       O  0.72696140  0.61093350  0.45663562    -0.82010
C1931       C  0.71931231  0.58502332  0.06122354     0.99020
C1932       C  0.71949638  0.58501663  0.43789229     1.04940
O1933       O  0.72725482  0.56701422  0.04257296    -0.77650
C1934       C  0.81698077  0.68212081  0.06141666     1.03240
C1935       C  0.87027517  0.78960527  0.17836319     0.03420
C1936       C  0.85322371  0.80401384  0.19363233    -0.12730
C1937       C  0.86962713  0.83491704  0.21012057     0.00920
C1938       C  0.90256646  0.85173090  0.20465776    -0.11260
C1939       C  0.91764912  0.83402632  0.20941244     0.03410
C1940       C  0.90250007  0.80373564  0.19085453    -0.10680
H1941       H  0.82765421  0.79051672  0.19602933     0.09000
H1942       H  0.91529932  0.87616677  0.21505488     0.06530
H1943       H  0.91528692  0.79109864  0.18875734     0.06380
C1944       C  0.61229496  0.53150578  0.17855707     0.03420
C1945       C  0.59600782  0.54792761  0.18765334    -0.12730
C1946       C  0.56568895  0.53163849  0.20612874     0.00920
C1947       C  0.54977892  0.49856044  0.20373600    -0.11260
C1948       C  0.56833752  0.48464641  0.21124124     0.03410
C1949       C  0.59933314  0.50045466  0.19490971    -0.10680
H1950       H  0.60690809  0.57309363  0.18278460     0.09000
H1951       H  0.52530369  0.48572828  0.21415584     0.06530
H1952       H  0.61385974  0.48959756  0.19739011     0.06380
C1953       C  0.53420861  0.86884556  0.32095854     0.03420
C1954       C  0.50255585  0.85092779  0.30620367    -0.12730
C1955       C  0.48685284  0.86627458  0.29082983     0.00920
C1956       C  0.50182124  0.89903241  0.29721802    -0.11260
C1957       C  0.53487572  0.91562859  0.29290537     0.03410
C1958       C  0.55111247  0.90144692  0.31054090    -0.10680
H1959       H  0.49105260  0.82542496  0.30394647     0.09000
H1960       H  0.48922693  0.91086590  0.28716664     0.06530
H1961       H  0.57646843  0.91562088  0.31392171     0.06380
C1962       C  0.53399371  0.86924322  0.17992841     0.03420
C1963       C  0.50191688  0.85147856  0.19283388    -0.12730
C1964       C  0.48676569  0.86693005  0.20989867     0.00920
C1965       C  0.50249890  0.89987559  0.20548916    -0.11260
C1966       C  0.53543528  0.91566397  0.21114497     0.03410
C1967       C  0.55153435  0.90123339  0.19339186    -0.10680
H1968       H  0.48966851  0.82588631  0.19242997     0.09000
H1969       H  0.49012677  0.91185688  0.21604221     0.06530
H1970       H  0.57709032  0.91451677  0.19177366     0.06380
Fe1971     Fe  0.57172981  0.75944083  0.50026658     1.65780
Fe1972     Fe  0.64188560  0.83001847  0.00026322     1.73250
Fe1973     Fe  0.64199735  0.75998675  0.00063158     1.54410
O1974       O  0.61315440  0.72770750  0.04621989    -0.81390
O1975       O  0.67240297  0.83322620  0.45148601    -0.79690
O1976       O  0.56857816  0.72961394  0.04954050    -0.83890
O1977       O  0.56872822  0.72775140  0.45352108    -0.78750
O1978       O  0.67171670  0.78712719  0.04938678    -0.80520
O1979       O  0.61343534  0.83284830  0.45304403    -0.83270
C1980       C  0.58723405  0.71897842  0.43841751     0.97500
C1981       C  0.58592671  0.71870179  0.06173574     1.04940
O1982       O  0.61854663  0.78317476  0.00041645    -1.12250
O1983       O  0.61448980  0.83304544  0.04902865    -0.74680
O1984       O  0.56825389  0.78799465  0.04625070    -0.78170
O1985       O  0.61533489  0.72988142  0.45180377    -0.78860
C1986       C  0.58614781  0.81540231  0.06158639     0.96400
O1987       O  0.56879309  0.78622774  0.45153953    -0.76820
O1988       O  0.67346372  0.83347937  0.04744315    -0.82010
C1989       C  0.68344123  0.81590853  0.43936540     0.99020
C1990       C  0.68244501  0.81521345  0.06259728     1.04940
O1991       O  0.67417440  0.78874610  0.45499991    -0.77650
C1992       C  0.58599296  0.81427444  0.43806688     1.03240
C1993       C  0.78966555  0.87066415  0.32136512     0.03420
C1994       C  0.80497142  0.85400128  0.30835674    -0.12730
C1995       C  0.83562547  0.87058346  0.29097620     0.00920
C1996       C  0.85194204  0.90353082  0.29555801    -0.11260
C1997       C  0.83372041  0.91804400  0.29022256     0.03410
C1998       C  0.80321287  0.90255874  0.30826465    -0.10680
H1999       H  0.79230529  0.82840074  0.30881226     0.09000
H2000       H  0.87641229  0.91646271  0.28515124     0.06530
H2001       H  0.79014568  0.91492355  0.31018904     0.06380
C2002       C  0.79022410  0.87017515  0.17754970     0.03420
C2003       C  0.80380612  0.90225065  0.18999806    -0.12730
C2004       C  0.83416380  0.91784004  0.20842806     0.00920
C2005       C  0.85223078  0.90305261  0.20414213    -0.11260
C2006       C  0.83565717  0.87017738  0.20963304     0.03410
C2007       C  0.80498720  0.85349011  0.19246341    -0.10680
H2008       H  0.79060895  0.91448553  0.18786697     0.09000
H2009       H  0.87665542  0.91601180  0.21469383     0.06530
H2010       H  0.79188861  0.82790825  0.19376768     0.06380
C2011       C  0.54744954  0.93439796  0.25214319     0.00850
C2012       C  0.56182698  0.96617197  0.25217741     0.00850
C2013       C  0.76043351  0.85469404  0.34814975    -0.05180
C2014       C  0.75948852  0.83527858  0.38211048    -0.32610
C2015       C  0.73427145  0.82210900  0.41120857     0.36640
C2016       C  0.70915438  0.82821710  0.40698559    -0.05540
C2017       C  0.70952913  0.84701697  0.37258388    -0.32510
C2018       C  0.73462023  0.85978796  0.34283213     0.36550
H2019       H  0.77905917  0.83118263  0.38722078     0.16920
O2020       O  0.73510622  0.80430483  0.44476904    -0.60000
H2021       H  0.69017428  0.85158058  0.36855721     0.16930
O2022       O  0.73336691  0.87684278  0.30864237    -0.60100
H2023       H  0.72598486  0.86198718  0.28384780     0.43930
H2024       H  0.74545904  0.81943369  0.46887724     0.43880
C2025       C  0.76073995  0.85394469  0.15126430    -0.05180
C2026       C  0.73687573  0.86190310  0.15540830    -0.32610
C2027       C  0.71082326  0.84912184  0.12734080     0.36640
C2028       C  0.70793628  0.82751047  0.09512506    -0.05540
C2029       C  0.73099370  0.81862108  0.09207586    -0.32510
C2030       C  0.75739845  0.83196762  0.11906896     0.36550
H2031       H  0.73840139  0.87823674  0.18016002     0.16920
O2032       O  0.68851079  0.85809641  0.13147204    -0.60000
H2033       H  0.72940108  0.80236571  0.06706931     0.16930
O2034       O  0.78052692  0.82439762  0.11212228    -0.60100
H2035       H  0.79583216  0.84085577  0.09219423     0.43930
H2036       H  0.67174957  0.84178765  0.15010101     0.43820
C2037       C  0.57277534  0.82765725  0.09408064    -0.05180
C2038       C  0.59174546  0.84780535  0.12739035    -0.32610
C2039       C  0.57942383  0.86058572  0.15706596     0.36640
C2040       C  0.54789090  0.85408142  0.15279233    -0.05540
C2041       C  0.52900989  0.83350155  0.11976705    -0.32510
C2042       C  0.54105282  0.82032486  0.09084334     0.36550
H2043       H  0.61610951  0.85342278  0.13064725     0.16920
O2044       O  0.59834209  0.87895670  0.19019466    -0.60000
H2045       H  0.50488430  0.82834358  0.11525672     0.16930
O2046       O  0.52185536  0.80129411  0.05832332    -0.60100
H2047       H  0.52450373  0.81591481  0.03449793     0.43930
H2048       H  0.59197221  0.86471303  0.21554965     0.43880
C2049       C  0.57283080  0.82615728  0.40487116    -0.05180
C2050       C  0.59293561  0.84971230  0.37572711    -0.32610
C2051       C  0.58096339  0.86298732  0.34642445     0.36640
C2052       C  0.54832159  0.85322933  0.34678179    -0.05540
C2053       C  0.52830729  0.82885366  0.37515939    -0.32510
C2054       C  0.54012129  0.81523286  0.40352433     0.36550
H2055       H  0.61806245  0.85783502  0.37554652     0.16920
O2056       O  0.60111839  0.88426653  0.31651845    -0.60000
H2057       H  0.50326156  0.82092908  0.37679739     0.16930
O2058       O  0.51946091  0.79202524  0.43102289    -0.60100
H2059       H  0.51711907  0.80339827  0.45596964     0.43930
H2060       H  0.61652214  0.90305564  0.33328634     0.43880
C2061       C  0.64193815  0.54574531  0.15242104    -0.05180
C2062       C  0.64566496  0.52630188  0.12244081    -0.32610
C2063       C  0.67107949  0.53856819  0.09366274     0.36640
C2064       C  0.69372534  0.57114528  0.09406945    -0.05540
C2065       C  0.69080065  0.59054027  0.12502899    -0.32510
C2066       C  0.66531836  0.57812389  0.15424356     0.36550
H2067       H  0.62802198  0.50144068  0.12001170     0.16920
O2068       O  0.67280769  0.51848110  0.06429130    -0.60000
H2069       H  0.70831134  0.61548082  0.12661831     0.16930
O2070       O  0.66431771  0.59751652  0.18546875    -0.60100
H2071       H  0.66128236  0.61343918  0.16980082     0.43930
H2072       H  0.66040443  0.51851810  0.03901046     0.43880
C2073       C  0.82926902  0.70762810  0.09433953    -0.05180
C2074       C  0.81798989  0.72889463  0.09417783    -0.32610
C2075       C  0.83041510  0.75489606  0.12198349     0.36640
C2076       C  0.85437622  0.75996898  0.15190781    -0.05540
C2077       C  0.86472247  0.73779342  0.15328739    -0.32510
C2078       C  0.85283869  0.71222468  0.12437013     0.36550
H2079       H  0.80028443  0.72625459  0.07090679     0.16920
O2080       O  0.82063079  0.77650535  0.11702525    -0.60000
H2081       H  0.88235760  0.74023972  0.17642551     0.16930
O2082       O  0.86414701  0.69168757  0.12621136    -0.60100
H2083       H  0.88421645  0.70203207  0.10954989     0.43930
H2084       H  0.79872751  0.76609128  0.12861713     0.43880
C2085       C  0.82623688  0.70737465  0.40500079    -0.05180
C2086       C  0.81619977  0.72954068  0.40654383    -0.32610
C2087       C  0.82966811  0.75601973  0.37961551     0.36640
C2088       C  0.85320880  0.76043090  0.34914658    -0.05540
C2089       C  0.86219845  0.73729666  0.34640596    -0.32510
C2090       C  0.84938351  0.71133314  0.37452130     0.36550
H2091       H  0.79895461  0.72727977  0.43044077     0.16920
O2092       O  0.82143234  0.77869532  0.38598426    -0.60000
H2093       H  0.87947747  0.73931496  0.32284876     0.16930
O2094       O  0.85931187  0.68971816  0.37151580    -0.60100
H2095       H  0.87969333  0.69930817  0.38738374     0.43930
H2096       H  0.79946681  0.76933529  0.37494882     0.43880
C2097       C  0.69406133  0.57321196  0.40477689    -0.05180
C2098       C  0.67270840  0.58446888  0.40535691    -0.32610
C2099       C  0.64677666  0.57232075  0.37738254     0.36640
C2100       C  0.64175849  0.54856055  0.34722994    -0.05540
C2101       C  0.66400145  0.53832329  0.34524455    -0.32510
C2102       C  0.68964069  0.55007150  0.37401008     0.36550
H2103       H  0.67524709  0.60195357  0.42896056     0.16920
O2104       O  0.62513489  0.58212508  0.38230712    -0.60000
H2105       H  0.66142743  0.52079843  0.32176105     0.16930
O2106       O  0.71034293  0.53895762  0.37139547    -0.60100
H2107       H  0.69999583  0.51868628  0.38742898     0.43930
H2108       H  0.63541983  0.60373985  0.36999551     0.43880
C2109       C  0.57301587  0.69255255  0.09276838    -0.05180
C2110       C  0.56696691  0.66294347  0.07826628    -0.32610
C2111       C  0.55343680  0.63688889  0.10573799     0.36640
C2112       C  0.54630842  0.64030748  0.14872456    -0.05540
C2113       C  0.55243493  0.66999457  0.16352154    -0.32510
C2114       C  0.56591084  0.69619180  0.13570423     0.36550
H2115       H  0.57206188  0.65986904  0.04511455     0.16920
O2116       O  0.54651029  0.60789090  0.08999686    -0.60000
H2117       H  0.54689402  0.67281205  0.19652599     0.16930
O2118       O  0.57218442  0.72514498  0.15068500    -0.60100
H2119       H  0.59456405  0.73585475  0.16036510     0.43930
H2120       H  0.52409081  0.59763184  0.08057566     0.43880
C2121       C  0.54904025  0.64166584  0.34813362    -0.05180
C2122       C  0.54181301  0.66596432  0.34384641    -0.32610
C2123       C  0.55452884  0.69170813  0.37242456     0.36640
C2124       C  0.57520659  0.69374489  0.40548839    -0.05540
C2125       C  0.58338505  0.67021390  0.40875094    -0.32510
C2126       C  0.57016302  0.64416171  0.38105279     0.36550
H2127       H  0.52607066  0.66496625  0.31857240     0.16920
O2128       O  0.54644008  0.71460175  0.36792080    -0.60000
H2129       H  0.59895867  0.67120795  0.43434083     0.16930
O2130       O  0.57692964  0.62052481  0.38794130    -0.60100
H2131       H  0.55983089  0.60521760  0.40715352     0.43930
H2132       H  0.56345943  0.73122769  0.34993627     0.43880
C2133       C  0.85467379  0.54889987  0.15205579    -0.05180
C2134       C  0.87340035  0.56862053  0.11836664    -0.32610
C2135       C  0.86124479  0.58124503  0.08887106     0.36640
C2136       C  0.82951877  0.57401939  0.09220536    -0.05540
C2137       C  0.81077966  0.55474709  0.12626972    -0.32510
C2138       C  0.82323282  0.54255190  0.15643061     0.36550
H2139       H  0.89742042  0.57342931  0.11382246     0.16920
O2140       O  0.88003830  0.59891719  0.05516943    -0.60000
H2141       H  0.78646874  0.54927924  0.12969231     0.16930
O2142       O  0.80450990  0.52466317  0.18998566    -0.60100
H2143       H  0.80635979  0.54011976  0.21216320     0.43930
H2144       H  0.89349597  0.62046988  0.06711217     0.43880
C2145       C  0.83032376  0.57410629  0.40663635    -0.05180
C2146       C  0.82626116  0.57514222  0.36196212    -0.32610
C2147       C  0.83865668  0.56181724  0.33339134     0.36640
C2148       C  0.85509231  0.54739476  0.34980390    -0.05540
C2149       C  0.85914399  0.54655991  0.39438557    -0.32510
C2150       C  0.84670313  0.55961020  0.42279339     0.36550
H2151       H  0.81342610  0.58609440  0.34940240     0.16920
O2152       O  0.83437447  0.56269795  0.28981459    -0.60000
H2153       H  0.87192779  0.53560270  0.40717250     0.16930
O2154       O  0.85106269  0.55855190  0.46637082    -0.60100
H2155       H  0.83237941  0.53867456  0.47642577     0.43930
H2156       H  0.85398872  0.58146235  0.27925653     0.43880
C2157       C  0.85765983  0.84200742  0.75056087     0.00850
C2158       C  0.84227677  0.85831434  0.75041507     0.00850
C2159       C  0.96785352  0.85414920  0.75036754     0.00850
C2160       C  0.93598396  0.83936940  0.75044086     0.00850
C2161       C  0.96580123  0.56377475  0.75068709     0.00850
C2162       C  0.93393183  0.54790038  0.75095874     0.00850
C2163       C  0.86885890  0.53326828  0.82180875     0.03420
C2164       C  0.90101864  0.55078886  0.81006268    -0.12730
C2165       C  0.91543088  0.53498967  0.79172593     0.00920
C2166       C  0.89909688  0.50195135  0.79557163    -0.11260
C2167       C  0.86614100  0.48677263  0.78993156     0.03410
C2168       C  0.85061621  0.50175968  0.80756029    -0.10680
H2169       H  0.91379536  0.57634032  0.81229161     0.09000
H2170       H  0.91107326  0.48962627  0.78483427     0.06530
H2171       H  0.82499036  0.48987739  0.80799884     0.06380
C2172       C  0.86828325  0.53372914  0.67926442     0.03420
C2173       C  0.90001209  0.55142732  0.69362701    -0.12730
C2174       C  0.91496972  0.53569112  0.71031777     0.00920
C2175       C  0.89950583  0.50287782  0.70416672    -0.11260
C2176       C  0.86643693  0.48679925  0.70848026     0.03410
C2177       C  0.85065709  0.50143461  0.69079382    -0.10680
H2178       H  0.91210888  0.57700920  0.69422005     0.09000
H2179       H  0.91175600  0.49071041  0.71423813     0.06530
H2180       H  0.82515333  0.48808090  0.68788870     0.06380
C2181       C  0.85369328  0.96806884  0.74915928     0.00850
C2182       C  0.83920343  0.93632106  0.74921570     0.00850
C2183       C  0.53269970  0.61251081  0.82130655     0.03420
C2184       C  0.54928587  0.59783655  0.80538251    -0.12730
C2185       C  0.53230366  0.56727509  0.78792184     0.00920
C2186       C  0.49944712  0.55073737  0.79445641    -0.11260
C2187       C  0.98457228  0.56875969  0.79111050     0.03410
C2188       C  0.50045541  0.59905888  0.80959672    -0.10680
H2189       H  0.57492079  0.61081416  0.80390831     0.09000
H2190       H  0.48630435  0.52633499  0.78399954     0.06530
H2191       H  0.98829848  0.61230529  0.81249769     0.06380
C2192       C  0.53127320  0.61217572  0.67664407     0.03420
C2193       C  0.50017384  0.60013050  0.69223843    -0.12730
C2194       C  0.98409681  0.56950258  0.70964590     0.00920
C2195       C  0.49781972  0.55059755  0.70316238    -0.11260
C2196       C  0.53093970  0.56619367  0.70629891     0.03410
C2197       C  0.54766859  0.59632064  0.68762031    -0.10680
H2198       H  0.98932804  0.61471495  0.69258677     0.09000
H2199       H  0.48458927  0.52624335  0.71369927     0.06530
H2200       H  0.57321374  0.60822732  0.68468100     0.06380
C2201       C  0.54376916  0.56021298  0.74684094     0.00850
C2202       C  0.56008025  0.54479464  0.74670184     0.00850
C2203       C  0.61198150  0.53257001  0.82126779     0.03420
C2204       C  0.59693043  0.49989637  0.81146686    -0.12730
C2205       C  0.56667760  0.98480377  0.79276005     0.00920
C2206       C  0.54973579  0.50085338  0.79521276    -0.11260
C2207       C  0.56738054  0.53348314  0.78760921     0.03410
C2208       C  0.59837397  0.54976594  0.80401312    -0.10680
H2209       H  0.60903781  0.98670805  0.81548887     0.09000
H2210       H  0.52526444  0.48833363  0.78479702     0.06530
H2211       H  0.61242232  0.57518771  0.80057798     0.06380
C2212       C  0.86971350  0.79007101  0.82297927     0.03420
C2213       C  0.85303510  0.80485290  0.80813567    -0.12730
C2214       C  0.86970370  0.83548448  0.79118220     0.00920
C2215       C  0.90268384  0.85199495  0.79629025    -0.11260
C2216       C  0.91742547  0.83394770  0.79143140     0.03410
C2217       C  0.90182819  0.80359294  0.80989917    -0.10680
H2218       H  0.82743250  0.79169554  0.80619387     0.09000
H2219       H  0.91559990  0.87636237  0.78572932     0.06530
H2220       H  0.91412388  0.79045577  0.81161889     0.06380
Fe2221     Fe  0.83063175  0.64181006  0.49806066     1.65780
Fe2222     Fe  0.76013458  0.64064704  0.00098774     1.73250
Fe2223     Fe  0.76074491  0.57125009  0.99854067     1.54410
O2224       O  0.79070937  0.56817007  0.95456647    -0.81390
O2225       O  0.73178956  0.61409403  0.55185889    -0.79690
O2226       O  0.83329423  0.61606208  0.94719148    -0.83890
O2227       O  0.83428092  0.61226297  0.54193376    -0.78750
O2228       O  0.73215396  0.56867054  0.94756863    -0.80520
O2229       O  0.78996816  0.67342307  0.54533003    -0.83270
C2230       C  0.81594469  0.58581957  0.55954524     0.97500
C2231       C  0.81698935  0.58711771  0.93713180     1.04940
O2232       O  0.78387499  0.61792638  0.99916217    -1.12250
O2233       O  0.78574685  0.67018529  0.95065722    -0.74680
O2234       O  0.83321095  0.67424766  0.95350125    -0.78170
O2235       O  0.78689907  0.56892068  0.54943965    -0.78860
C2236       C  0.81419923  0.68207962  0.93785033     0.96400
O2237       O  0.83399718  0.67075531  0.54910563    -0.76820
O2238       O  0.72696141  0.61093352  0.95663560    -0.82010
C2239       C  0.71931231  0.58502333  0.56122355     0.99020
C2240       C  0.71949637  0.58501663  0.93789228     1.04940
O2241       O  0.72725482  0.56701423  0.54257295    -0.77650
C2242       C  0.81698078  0.68212081  0.56141666     1.03240
C2243       C  0.87027517  0.78960527  0.67836319     0.03420
C2244       C  0.85322371  0.80401384  0.69363234    -0.12730
C2245       C  0.86962712  0.83491704  0.71012057     0.00920
C2246       C  0.90256646  0.85173090  0.70465776    -0.11260
C2247       C  0.91764912  0.83402633  0.70941244     0.03410
C2248       C  0.90250007  0.80373564  0.69085453    -0.10680
H2249       H  0.82765421  0.79051672  0.69602935     0.09000
H2250       H  0.91529931  0.87616678  0.71505488     0.06530
H2251       H  0.91528692  0.79109865  0.68875734     0.06380
C2252       C  0.61229495  0.53150578  0.67855707     0.03420
C2253       C  0.59600781  0.54792761  0.68765334    -0.12730
C2254       C  0.56568894  0.53163849  0.70612874     0.00920
C2255       C  0.54977892  0.49856043  0.70373600    -0.11260
C2256       C  0.56833752  0.48464641  0.71124124     0.03410
C2257       C  0.59933314  0.50045466  0.69490970    -0.10680
H2258       H  0.60690808  0.57309363  0.68278460     0.09000
H2259       H  0.52530369  0.48572827  0.71415583     0.06530
H2260       H  0.61385974  0.48959757  0.69739011     0.06380
C2261       C  0.53420861  0.86884557  0.82095854     0.03420
C2262       C  0.50255585  0.85092780  0.80620367    -0.12730
C2263       C  0.48685284  0.86627459  0.79082984     0.00920
C2264       C  0.50182124  0.89903241  0.79721802    -0.11260
C2265       C  0.53487572  0.91562859  0.79290537     0.03410
C2266       C  0.55111247  0.90144692  0.81054091    -0.10680
H2267       H  0.49105260  0.82542497  0.80394647     0.09000
H2268       H  0.48922694  0.91086591  0.78716664     0.06530
H2269       H  0.57646843  0.91562089  0.81392171     0.06380
C2270       C  0.53399371  0.86924322  0.67992841     0.03420
C2271       C  0.50191688  0.85147856  0.69283388    -0.12730
C2272       C  0.48676569  0.86693005  0.70989867     0.00920
C2273       C  0.50249890  0.89987559  0.70548916    -0.11260
C2274       C  0.53543528  0.91566398  0.71114497     0.03410
C2275       C  0.55153435  0.90123339  0.69339186    -0.10680
H2276       H  0.48966851  0.82588632  0.69242996     0.09000
H2277       H  0.49012677  0.91185688  0.71604221     0.06530
H2278       H  0.57709032  0.91451677  0.69177366     0.06380
Fe2279     Fe  0.57172981  0.75944083  0.00026657     1.65780
Fe2280     Fe  0.64188560  0.83001847  0.50026322     1.73250
Fe2281     Fe  0.64199735  0.75998674  0.50063158     1.54410
O2282       O  0.61315438  0.72770749  0.54621988    -0.81390
O2283       O  0.67240298  0.83322620  0.95148602    -0.79690
O2284       O  0.56857816  0.72961395  0.54954052    -0.83890
O2285       O  0.56872823  0.72775141  0.95352107    -0.78750
O2286       O  0.67171669  0.78712718  0.54938679    -0.80520
O2287       O  0.61343535  0.83284830  0.95304402    -0.83270
C2288       C  0.58723405  0.71897843  0.93841750     0.97500
C2289       C  0.58592671  0.71870179  0.56173574     1.04940
O2290       O  0.61854662  0.78317476  0.50041645    -1.12250
O2291       O  0.61448981  0.83304544  0.54902866    -0.74680
O2292       O  0.56825388  0.78799465  0.54625069    -0.78170
O2293       O  0.61533490  0.72988142  0.95180378    -0.78860
C2294       C  0.58614781  0.81540231  0.56158639     0.96400
O2295       O  0.56879309  0.78622775  0.95153954    -0.76820
O2296       O  0.67346372  0.83347937  0.54744314    -0.82010
C2297       C  0.68344123  0.81590854  0.93936540     0.99020
C2298       C  0.68244501  0.81521344  0.56259728     1.04940
O2299       O  0.67417440  0.78874610  0.95499990    -0.77650
C2300       C  0.58599296  0.81427444  0.93806689     1.03240
C2301       C  0.78966555  0.87066416  0.82136513     0.03420
C2302       C  0.80497143  0.85400130  0.80835675    -0.12730
C2303       C  0.83562548  0.87058348  0.79097620     0.00920
C2304       C  0.85194204  0.90353084  0.79555799    -0.11260
C2305       C  0.83372040  0.91804401  0.79022254     0.03410
C2306       C  0.80321287  0.90255875  0.80826464    -0.10680
H2307       H  0.79230531  0.82840076  0.80881228     0.09000
H2308       H  0.87641229  0.91646273  0.78515122     0.06530
H2309       H  0.79014568  0.91492355  0.81018902     0.06380
C2310       C  0.79022410  0.87017514  0.67754969     0.03420
C2311       C  0.80380611  0.90225064  0.68999804    -0.12730
C2312       C  0.83416379  0.91784004  0.70842803     0.00920
C2313       C  0.85223077  0.90305261  0.70414212    -0.11260
C2314       C  0.83565717  0.87017739  0.70963303     0.03410
C2315       C  0.80498719  0.85349010  0.69246341    -0.10680
H2316       H  0.79060894  0.91448552  0.68786694     0.09000
H2317       H  0.87665541  0.91601181  0.71469381     0.06530
H2318       H  0.79188861  0.82790824  0.69376769     0.06380
C2319       C  0.54744955  0.93439797  0.75214319     0.00850
C2320       C  0.56182699  0.96617197  0.75217741     0.00850
C2321       C  0.76043352  0.85469405  0.84814975    -0.05180
C2322       C  0.75948853  0.83527860  0.88211049    -0.32610
C2323       C  0.73427146  0.82210901  0.91120857     0.36640
C2324       C  0.70915439  0.82821711  0.90698559    -0.05540
C2325       C  0.70952914  0.84701697  0.87258388    -0.32510
C2326       C  0.73462024  0.85978796  0.84283213     0.36550
H2327       H  0.77905918  0.83118265  0.88722079     0.16920
O2328       O  0.73510623  0.80430485  0.94476904    -0.60000
H2329       H  0.69017428  0.85158057  0.86855721     0.16930
O2330       O  0.73336691  0.87684278  0.80864237    -0.60100
H2331       H  0.72598486  0.86198718  0.78384780     0.43930
H2332       H  0.74545905  0.81943371  0.96887724     0.43880
C2333       C  0.76073994  0.85394467  0.65126430    -0.05180
C2334       C  0.73687572  0.86190309  0.65540829    -0.32610
C2335       C  0.71082325  0.84912183  0.62734079     0.36640
C2336       C  0.70793627  0.82751046  0.59512506    -0.05540
C2337       C  0.73099369  0.81862106  0.59207586    -0.32510
C2338       C  0.75739843  0.83196760  0.61906897     0.36550
H2339       H  0.73840139  0.87823673  0.68016002     0.16920
O2340       O  0.68851079  0.85809641  0.63147203    -0.60000
H2341       H  0.72940106  0.80236569  0.56706932     0.16930
O2342       O  0.78052690  0.82439760  0.61212229    -0.60100
H2343       H  0.79583214  0.84085574  0.59219424     0.43930
H2344       H  0.67174957  0.84178765  0.65010100     0.43820
C2345       C  0.57277534  0.82765726  0.59408064    -0.05180
C2346       C  0.59174545  0.84780534  0.62739036    -0.32610
C2347       C  0.57942383  0.86058571  0.65706596     0.36640
C2348       C  0.54789090  0.85408142  0.65279232    -0.05540
C2349       C  0.52900990  0.83350156  0.61976703    -0.32510
C2350       C  0.54105282  0.82032488  0.59084333     0.36550
H2351       H  0.61610951  0.85342277  0.63064726     0.16920
O2352       O  0.59834208  0.87895669  0.69019468    -0.60000
H2353       H  0.50488431  0.82834360  0.61525670     0.16930
O2354       O  0.52185537  0.80129413  0.55832329    -0.60100
H2355       H  0.52450374  0.81591484  0.53449791     0.43930
H2356       H  0.59197219  0.86471301  0.71554966     0.43880
C2357       C  0.57283081  0.82615729  0.90487116    -0.05180
C2358       C  0.59293561  0.84971231  0.87572712    -0.32610
C2359       C  0.58096340  0.86298733  0.84642445     0.36640
C2360       C  0.54832159  0.85322933  0.84678180    -0.05540
C2361       C  0.52830730  0.82885366  0.87515939    -0.32510
C2362       C  0.54012130  0.81523286  0.90352433     0.36550
H2363       H  0.61806245  0.85783503  0.87554653     0.16920
O2364       O  0.60111839  0.88426655  0.81651846    -0.60000
H2365       H  0.50326156  0.82092908  0.87679739     0.16930
O2366       O  0.51946091  0.79202524  0.93102289    -0.60100
H2367       H  0.51711907  0.80339827  0.95596964     0.43930
H2368       H  0.61652214  0.90305566  0.83328635     0.43880
C2369       C  0.64193815  0.54574531  0.65242104    -0.05180
C2370       C  0.64566496  0.52630189  0.62244082    -0.32610
C2371       C  0.67107950  0.53856820  0.59366275     0.36640
C2372       C  0.69372534  0.57114529  0.59406945    -0.05540
C2373       C  0.69080065  0.59054028  0.62502899    -0.32510
C2374       C  0.66531835  0.57812390  0.65424356     0.36550
H2375       H  0.62802199  0.50144068  0.62001171     0.16920
O2376       O  0.67280770  0.51848110  0.56429132    -0.60000
H2377       H  0.70831133  0.61548083  0.62661830     0.16930
O2378       O  0.66431769  0.59751652  0.68546874    -0.60100
H2379       H  0.66128234  0.61343919  0.66980080     0.43930
H2380       H  0.66040443  0.51851810  0.53901048     0.43880
C2381       C  0.82926903  0.70762810  0.59433953    -0.05180
C2382       C  0.81798989  0.72889462  0.59417785    -0.32610
C2383       C  0.83041509  0.75489605  0.62198350     0.36640
C2384       C  0.85437623  0.75996899  0.65190782    -0.05540
C2385       C  0.86472249  0.73779343  0.65328738    -0.32510
C2386       C  0.85283870  0.71222469  0.62437012     0.36550
H2387       H  0.80028443  0.72625458  0.57090681     0.16920
O2388       O  0.82063077  0.77650533  0.61702528    -0.60000
H2389       H  0.88235761  0.74023974  0.67642550     0.16930
O2390       O  0.86414703  0.69168759  0.62621135    -0.60100
H2391       H  0.88421647  0.70203209  0.60954986     0.43930
H2392       H  0.79872750  0.76609126  0.62861716     0.43880
C2393       C  0.82623689  0.70737466  0.90500080    -0.05180
C2394       C  0.81619978  0.72954068  0.90654383    -0.32610
C2395       C  0.82966812  0.75601974  0.87961552     0.36640
C2396       C  0.85320881  0.76043090  0.84914659    -0.05540
C2397       C  0.86219845  0.73729667  0.84640597    -0.32510
C2398       C  0.84938352  0.71133315  0.87452130     0.36550
H2399       H  0.79895462  0.72727978  0.93044078     0.16920
O2400       O  0.82143235  0.77869533  0.88598427    -0.60000
H2401       H  0.87947747  0.73931497  0.82284876     0.16930
O2402       O  0.85931187  0.68971817  0.87151579    -0.60100
H2403       H  0.87969334  0.69930817  0.88738373     0.43930
H2404       H  0.79946682  0.76933530  0.87494884     0.43880
C2405       C  0.69406133  0.57321196  0.90477688    -0.05180
C2406       C  0.67270840  0.58446888  0.90535690    -0.32610
C2407       C  0.64677665  0.57232075  0.87738254     0.36640
C2408       C  0.64175849  0.54856055  0.84722993    -0.05540
C2409       C  0.66400145  0.53832330  0.84524454    -0.32510
C2410       C  0.68964069  0.55007151  0.87401007     0.36550
H2411       H  0.67524709  0.60195357  0.92896056     0.16920
O2412       O  0.62513488  0.58212507  0.88230713    -0.60000
H2413       H  0.66142744  0.52079844  0.82176104     0.16930
O2414       O  0.71034294  0.53895764  0.87139545    -0.60100
H2415       H  0.69999584  0.51868630  0.88742895     0.43930
H2416       H  0.63541981  0.60373984  0.86999552     0.43880
C2417       C  0.57301586  0.69255255  0.59276838    -0.05180
C2418       C  0.56696693  0.66294348  0.57826629    -0.32610
C2419       C  0.55343681  0.63688890  0.60573801     0.36640
C2420       C  0.54630841  0.64030748  0.64872457    -0.05540
C2421       C  0.55243490  0.66999457  0.66352154    -0.32510
C2422       C  0.56591082  0.69619180  0.63570422     0.36550
H2423       H  0.57206191  0.65986905  0.54511457     0.16920
O2424       O  0.54651033  0.60789091  0.58999688    -0.60000
H2425       H  0.54689398  0.67281204  0.69652598     0.16930
O2426       O  0.57218437  0.72514497  0.65068499    -0.60100
H2427       H  0.59456400  0.73585475  0.66036511     0.43930
H2428       H  0.52409085  0.59763184  0.58057566     0.43880
C2429       C  0.54904026  0.64166584  0.84813362    -0.05180
C2430       C  0.54181303  0.66596433  0.84384640    -0.32610
C2431       C  0.55452886  0.69170814  0.87242455     0.36640
C2432       C  0.57520659  0.69374489  0.90548839    -0.05540
C2433       C  0.58338504  0.67021390  0.90875095    -0.32510
C2434       C  0.57016301  0.64416170  0.88105280     0.36550
H2435       H  0.52607069  0.66496627  0.81857238     0.16920
O2436       O  0.54644011  0.71460177  0.86792077    -0.60000
H2437       H  0.59895866  0.67120794  0.93434085     0.16930
O2438       O  0.57692963  0.62052480  0.88794132    -0.60100
H2439       H  0.55983087  0.60521759  0.90715354     0.43930
H2440       H  0.56345948  0.73122770  0.84993625     0.43880
C2441       C  0.85467378  0.54889987  0.65205580    -0.05180
C2442       C  0.87340036  0.56862055  0.61836668    -0.32610
C2443       C  0.86124480  0.58124506  0.58887109     0.36640
C2444       C  0.82951878  0.57401939  0.59220538    -0.05540
C2445       C  0.81077966  0.55474707  0.62626971    -0.32510
C2446       C  0.82323281  0.54255188  0.65643060     0.36550
H2447       H  0.89742044  0.57342935  0.61382251     0.16920
O2448       O  0.88003832  0.59891724  0.55516949    -0.60000
H2449       H  0.78646873  0.54927921  0.62969229     0.16930
O2450       O  0.80450988  0.52466313  0.68998563    -0.60100
H2451       H  0.80635967  0.54011971  0.71216312     0.43930
H2452       H  0.89349598  0.62046992  0.56711224     0.43880
C2453       C  0.83032377  0.57410629  0.90663634    -0.05180
C2454       C  0.82626100  0.57514205  0.86196212    -0.32610
C2455       C  0.83865653  0.56181708  0.83339135     0.36640
C2456       C  0.85509233  0.54739477  0.84980390    -0.05540
C2457       C  0.85914417  0.54656009  0.89438556    -0.32510
C2458       C  0.84670330  0.55961038  0.92279338     0.36550
H2459       H  0.81342581  0.58609410  0.84940241     0.16920
O2460       O  0.83437418  0.56269763  0.78981461    -0.60000
H2461       H  0.87192809  0.53560301  0.90717249     0.16930
O2462       O  0.85106299  0.55855222  0.96637080    -0.60100
H2463       H  0.83237977  0.53867487  0.97642588     0.43930
H2464       H  0.85398836  0.58146204  0.77925640     0.43880
loop_ 
_geom_bond_atom_site_label_1 
_geom_bond_atom_site_label_2 
_geom_bond_distance 
_geom_bond_site_symmetry_2 
_ccdc_geom_bond_type 
C1            C2   1.345       .  D
C1           C58   1.492       .  S
C1           C89   1.494       .  S
C2          C147   1.496       .  S
C2          C158   1.494       .  S
C3            C4   1.347       .  D
C3         C1339   1.494       .  S
C3         C1348   1.495       .  S
C4           C60   1.504       .  S
C4           C91   1.501       .  S
C5            C6   1.346       .  D
C5           C31   1.499       .  S
C5           C38   1.497       .  S
C6            C9   1.495       .  S
C6           C18   1.498       .  S
C7            C8   1.407       .  A
C7           C12   1.409       .  A
C7          C300   1.466       .  S
C8            C9   1.401       .  A
C8           H13   1.083       .  S
C9           C10   1.403       .  A
C10          C11   1.404   1_545  A
C10          H14   1.083   1_545  S
C11         C641   1.497       .  S
C11          C12   1.404   1_565  A
C12          H15   1.083   1_545  S
C16          C17   1.415       .  A
C16          C21   1.415       .  A
C16         C285   1.486       .  S
C17          C18   1.403       .  A
C17          H22   1.083       .  S
C18          C19   1.402       .  A
C19          C20   1.403   1_545  A
C19          H23   1.083   1_545  S
C20         C641   1.498       .  S
C20          C21   1.403   1_565  A
C21          H24   1.081   1_545  S
C25          C26   1.346       .  D
C25         C627   1.497       .  S
C25         C636   1.498       .  S
C26         C149   1.500       .  S
C26         C156   1.499       .  S
C27          C28   1.415       .  A
C27          C32   1.416       .  A
C27         C273   1.489       .  S
C28          C29   1.403       .  A
C28          H33   1.083       .  S
C29          C45   1.498       .  S
C29          C30   1.402   1_455  A
C30        C1263   1.402       .  A
C30          H34   1.083       .  S
C31        C1262   1.402       .  A
C31        C1264   1.404       .  A
C32        C1263   1.404   1_455  A
C32        H1267   1.082   1_455  S
H35        C1264   1.082       .  S
C36          C37   1.410       .  A
C36          C41   1.411       .  A
C36         C264   1.473       .  S
C37        C1270   1.405   1_455  A
C37        H1274   1.083   1_455  S
C38        C1269   1.405       .  A
C38        C1271   1.404       .  A
C39          C40   1.403   1_655  A
C39        C1270   1.404       .  A
C39          H43   1.083       .  S
C40          C45   1.499       .  S
C40          C41   1.403       .  A
C41          H44   1.083       .  S
H42        C1269   1.083       .  S
C45          C46   1.346       .  D
C46          C51   1.498       .  S
C46          C98   1.498       .  S
C47          C48   1.417   1_545  A
C47          C52   1.416       .  A
C47         C252   1.494       .  S
C48         C665   1.403       .  A
C48         H669   1.081       .  S
C49         C164   1.499       .  S
C49         C664   1.403       .  A
C49         C666   1.402       .  A
C50          C51   1.402       .  A
C50         C665   1.402   1_545  A
C50          H54   1.083   1_545  S
C51          C52   1.405       .  A
C52          H55   1.083       .  S
H53         C664   1.081       .  S
C56          C57   1.414       .  A
C56          C61   1.421       .  A
C56         C240   1.496       .  S
C57          C58   1.401       .  A
C57          H62   1.083       .  S
C58          C59   1.402       .  A
C59          C60   1.402       .  A
C59          H63   1.083       .  S
C60          C61   1.407       .  A
C61          H64   1.081       .  S
Fe65         O81   2.072   1_556  S
Fe65         O71   2.060   1_556  S
Fe65        O386   2.063       .  S
Fe65        O378   2.061       .  S
Fe65        O384   1.975       .  S
Fe66         O77   2.067       .  S
Fe66         O82   2.063       .  S
Fe66        O377   2.069       .  S
Fe66        O381   2.057       .  S
Fe66         O76   1.972       .  S
Fe67         O72   2.072       .  S
Fe67         O68   2.059       .  S
Fe67        O393   2.058       .  S
Fe67        O387   2.071       .  S
Fe67         O76   1.975       .  S
O68          C75   1.266       .  A
O69        Fe374   2.069       .  S
O69          C83   1.269       .  A
O70        Fe373   2.061       .  S
O70          C75   1.266       .  A
O71          C74   1.269       .  A
O72          C84   1.271       .  A
O73        Fe374   2.057       .  S
O73          C86   1.268       .  A
C74         C288   1.480       .  S
C74          O79   1.271       .  A
C75         C297   1.462       .  S
O76        Fe373   1.975       .  S
O77          C80   1.270       .  A
O78        Fe373   2.063       .  S
O78          C80   1.268       .  A
O79        Fe375   2.071   1_554  S
C80         C237   1.479       .  S
O81          C86   1.270       .  A
O82          C84   1.270       .  A
C83         C216   1.485       .  S
C83          O85   1.267       .  A
C84         C249   1.487       .  S
O85        Fe375   2.058   1_554  S
C86         C225   1.484       .  S
C87          C88   1.416       .  A
C87          C92   1.419       .  A
C87         C228   1.498       .  S
C88          C89   1.404       .  A
C88          H93   1.083       .  S
C89          C90   1.401       .  A
C90          C91   1.401       .  A
C90          H94   1.083       .  S
C91          C92   1.404       .  A
C92          H95   1.081       .  S
C96          C97   1.416       .  A
C96         C101   1.415       .  A
C96         C213   1.491       .  S
C97          C98   1.403       .  A
C97         H102   1.079       .  S
C98          C99   1.402   1_545  A
C99         C100   1.402       .  A
C99         H103   1.083       .  S
C100        C780   1.497       .  S
C100        C101   1.403   1_565  A
C101        H104   1.083   1_545  S
C105        C106   1.416       .  A
C105        C110   1.418       .  A
C105        C204   1.496       .  S
C106        C107   1.402   1_455  A
C106        H111   1.083   1_455  S
C107       C1235   1.494       .  S
C107        C108   1.402   1_655  A
C108        C109   1.402       .  A
C108        H112   1.083   1_455  S
C109        C163   1.500       .  S
C109        C110   1.404       .  A
C110        H113   1.078       .  S
C114        C115   1.414       .  A
C114        C119   1.418       .  A
C114        C192   1.491       .  S
C115        C116   1.401   1_455  A
C115        H120   1.084   1_455  S
C116       C1235   1.495       .  S
C116        C117   1.402   1_655  A
C117        C118   1.402       .  A
C117        H121   1.083   1_455  S
C118        C163   1.502       .  S
C118        C119   1.407       .  A
C119        H122   1.080       .  S
Fe123       O139   2.055       .  S
Fe123       O129   2.071       .  S
Fe123       O444   2.060       .  S
Fe123       O436   2.067       .  S
Fe123       O442   1.977       .  S
Fe124       O135   2.071       .  S
Fe124       O140   2.071       .  S
Fe124       O435   2.071   1_554  S
Fe124       O439   2.073   1_554  S
Fe124       O134   1.982       .  S
Fe125       O130   2.052       .  S
Fe125       O126   2.059       .  S
Fe125       O451   2.056   1_554  S
Fe125       O445   2.055   1_554  S
Fe125       O134   1.979       .  S
O126        C133   1.266       .  A
O127       Fe432   2.071       .  S
O127        C141   1.269       .  A
O128       Fe431   2.067       .  S
O128        C133   1.267       .  A
O129        C132   1.269       .  A
O130        C142   1.268       .  A
O131       Fe432   2.073       .  S
O131        C144   1.270       .  A
C132        C276   1.476       .  S
C132        O137   1.267       .  A
C133        C261   1.467       .  S
O134       Fe431   1.977       .  S
O135        C138   1.269       .  A
O136       Fe431   2.060       .  S
O136        C138   1.268       .  A
O137       Fe433   2.055       .  S
C138        C189   1.480       .  S
O139        C144   1.267       .  A
O140        C142   1.270       .  A
C141        C168   1.478       .  S
C141        O143   1.267       .  A
C142        C180   1.475       .  S
O143       Fe433   2.056       .  S
C144        C201   1.481       .  S
C145        C146   1.415       .  A
C145        C150   1.416       .  A
C145        C165   1.488       .  S
C146        C147   1.403       .  A
C146        H151   1.084       .  S
C147        C148   1.401       .  A
C148        C149   1.402       .  A
C148        H152   1.083       .  S
C149        C150   1.404       .  A
C150        H153   1.081       .  S
C154        C155   1.416       .  A
C154        C159   1.414       .  A
C154        C177   1.490       .  S
C155        C156   1.404       .  A
C155        H160   1.081       .  S
C156        C157   1.402       .  A
C157        C158   1.402       .  A
C157        H161   1.083       .  S
C158        C159   1.402       .  A
C159        H162   1.083       .  S
C163        C164   1.347       .  D
C164        C716   1.497       .  S
C165        C166   1.405       .  A
C165        C170   1.414       .  A
C166        C167   1.395       .  A
C166        H171   1.084       .  S
C167        C168   1.409       .  A
C167        O172   1.372       .  S
C168        C169   1.404       .  A
C169        C170   1.404       .  A
C169        H173   1.084       .  S
C170        O174   1.371       .  S
O172        H176   0.992       .  S
O174        H175   0.992       .  S
C177        C178   1.409       .  A
C177        C182   1.414       .  A
C178        C179   1.403       .  A
C178        H183   1.082       .  S
C179        C180   1.408       .  A
C179        O184   1.372       .  S
C180        C181   1.401       .  A
C181        C182   1.394       .  A
C181        H185   1.084       .  S
C182        O186   1.372       .  S
O184        H188   0.992       .  S
O186        H187   0.992       .  S
C189        C190   1.406       .  A
C189        C194   1.408       .  A
C190        C191   1.405       .  A
C190        H195   1.084       .  S
C191        C192   1.414       .  A
C191        O196   1.371       .  S
C192        C193   1.406       .  A
C193        C194   1.394       .  A
C193        H197   1.084       .  S
C194        O198   1.372       .  S
O196        H200   0.992       .  S
O198        H199   0.992       .  S
C201        C202   1.404       .  A
C201        C206   1.408       .  A
C202        C203   1.406       .  A
C202        H207   1.084       .  S
C203        C204   1.416       .  A
C203        O208   1.372       .  S
C204        C205   1.407       .  A
C205        C206   1.394       .  A
C205        H209   1.083       .  S
C206        O210   1.372       .  S
O208        H212   0.992       .  S
O210        H211   0.991       .  S
C213        C214   1.405       .  A
C213        C218   1.414       .  A
C214        C215   1.395       .  A
C214        H219   1.084       .  S
C215        C216   1.412       .  A
C215        O220   1.372       .  S
C216        C217   1.405       .  A
C217        C218   1.406       .  A
C217        H221   1.084       .  S
C218        O222   1.372       .  S
O220        H224   0.992       .  S
O222        H223   0.992       .  S
C225        C226   1.403       .  A
C225        C230   1.409       .  A
C226        C227   1.397       .  A
C226        H231   1.084       .  S
C227        C228   1.415       .  A
C227        O232   1.373       .  S
C228        C229   1.411       .  A
C229        C230   1.404       .  A
C229        H233   1.081       .  S
C230        O234   1.372       .  S
O232        H236   0.992       .  S
O234        H235   0.992       .  S
C237        C238   1.399       .  A
C237        C242   1.409       .  A
C238        C239   1.398       .  A
C238        H243   1.084       .  S
C239        C240   1.417       .  A
C239        O244   1.373       .  S
C240        C241   1.409       .  A
C241        C242   1.403       .  A
C241        H245   1.082       .  S
C242        O246   1.372       .  S
O244        H248   0.992       .  S
O246        H247   0.992       .  S
C249        C250   1.405       .  A
C249        C254   1.410       .  A
C250        C251   1.398       .  A
C250        H255   1.084       .  S
C251        C252   1.413       .  A
C251        O256   1.373       .  S
C252        C253   1.409       .  A
C253        C254   1.404       .  A
C253        H257   1.082       .  S
C254        O258   1.372       .  S
O256        H260   0.992       .  S
O258        H259   0.992       .  S
C261        C262   1.399       .  A
C261        C266   1.408       .  A
C262        C263   1.394       .  A
C262        H267   1.084       .  S
C263        C264   1.407       .  A
C263        O268   1.372       .  S
C264        C265   1.405       .  A
C265        C266   1.405       .  A
C265        H269   1.083       .  S
C266        O270   1.371       .  S
O268        H272   0.992       .  S
O270        H271   0.992       .  S
C273        C274   1.409       .  A
C273        C278   1.413       .  A
C274        C275   1.403       .  A
C274        H279   1.082       .  S
C275        C276   1.408       .  A
C275        O280   1.372       .  S
C276        C277   1.401       .  A
C277        C278   1.396       .  A
C277        H281   1.084       .  S
C278        O282   1.372       .  S
O280        H284   0.992       .  S
O282        H283   0.992       .  S
C285        C286   1.404       .  A
C285        C290   1.412       .  A
C286        C287   1.395       .  A
C286        H291   1.084       .  S
C287        C288   1.410       .  A
C287        O292   1.372       .  S
C288        C289   1.405       .  A
C289        C290   1.404       .  A
C289        H293   1.084       .  S
C290        O294   1.371       .  S
O292        H296   0.992       .  S
O294        H295   0.991       .  S
C297        C298   1.403       .  A
C297        C302   1.404       .  A
C298        C299   1.404       .  A
C298        H303   1.083       .  S
C299        C300   1.406       .  A
C299        O304   1.371       .  S
C300        C301   1.399       .  A
C301        C302   1.393       .  A
C301        H305   1.084       .  S
C302        O306   1.372       .  S
O304        H308   0.992       .  S
O306        H307   0.992       .  S
C309        C310   1.345       .  D
C309        C366   1.492       .  S
C309        C397   1.494       .  S
C310        C455   1.496       .  S
C310        C466   1.494       .  S
C311        C312   1.347       .  D
C311       C1647   1.494       .  S
C311       C1656   1.495       .  S
C312        C368   1.504       .  S
C312        C399   1.501       .  S
C313        C314   1.346       .  D
C313        C339   1.499       .  S
C313        C346   1.497       .  S
C314        C317   1.495       .  S
C314        C326   1.498       .  S
C315        C316   1.407       .  A
C315        C320   1.409       .  A
C315        C608   1.466       .  S
C316        C317   1.401       .  A
C316        H321   1.083       .  S
C317        C318   1.403       .  A
C318        C319   1.404   1_545  A
C318        H322   1.083   1_545  S
C319        C949   1.497       .  S
C319        C320   1.404   1_565  A
C320        H323   1.083   1_545  S
C324        C325   1.415       .  A
C324        C329   1.415       .  A
C324        C593   1.486       .  S
C325        C326   1.403       .  A
C325        H330   1.083       .  S
C326        C327   1.402       .  A
C327        C328   1.403   1_545  A
C327        H331   1.083   1_545  S
C328        C949   1.498       .  S
C328        C329   1.403   1_565  A
C329        H332   1.081   1_545  S
C333        C334   1.346       .  D
C333        C935   1.497       .  S
C333        C944   1.498       .  S
C334        C457   1.500       .  S
C334        C464   1.499       .  S
C335        C336   1.415       .  A
C335        C340   1.416       .  A
C335        C581   1.489       .  S
C336        C337   1.403       .  A
C336        H341   1.083       .  S
C337        C353   1.498       .  S
C337        C338   1.402   1_455  A
C338       C1571   1.402       .  A
C338        H342   1.083       .  S
C339       C1570   1.402       .  A
C339       C1572   1.404       .  A
C340       C1571   1.404   1_455  A
C340       H1575   1.082   1_455  S
H343       C1572   1.082       .  S
C344        C345   1.410       .  A
C344        C349   1.411       .  A
C344        C572   1.473       .  S
C345       C1578   1.405   1_455  A
C345       H1582   1.083   1_455  S
C346       C1577   1.405       .  A
C346       C1579   1.404       .  A
C347       C1578   1.404       .  A
C347        C348   1.403   1_655  A
C347        H351   1.083       .  S
C348        C353   1.499       .  S
C348        C349   1.403       .  A
C349        H352   1.083       .  S
H350       C1577   1.083       .  S
C353        C354   1.346       .  D
C354        C359   1.498       .  S
C354        C406   1.498       .  S
C355        C356   1.417   1_545  A
C355        C360   1.416       .  A
C355        C560   1.494       .  S
C356        C973   1.403       .  A
C356        H977   1.081       .  S
C357        C472   1.499       .  S
C357        C972   1.403       .  A
C357        C974   1.402       .  A
C358        C973   1.402   1_545  A
C358        C359   1.402       .  A
C358        H362   1.083   1_545  S
C359        C360   1.405       .  A
C360        H363   1.083       .  S
H361        C972   1.081       .  S
C364        C365   1.414       .  A
C364        C369   1.421       .  A
C364        C548   1.496       .  S
C365        C366   1.401       .  A
C365        H370   1.083       .  S
C366        C367   1.402       .  A
C367        C368   1.402       .  A
C367        H371   1.083       .  S
C368        C369   1.407       .  A
C369        H372   1.081       .  S
Fe373       O389   2.072       .  S
Fe373       O379   2.060       .  S
Fe374       O385   2.067   1_554  S
Fe374       O390   2.063   1_554  S
Fe374       O384   1.972   1_554  S
Fe375       O380   2.072       .  S
Fe375       O376   2.059       .  S
Fe375       O384   1.975       .  S
O376        C383   1.266       .  A
O377        C391   1.269       .  A
O378        C383   1.266       .  A
O379        C382   1.269       .  A
O380        C392   1.271       .  A
O381        C394   1.268       .  A
C382        C596   1.480       .  S
C382        O387   1.271       .  A
C383        C605   1.462       .  S
O385        C388   1.270       .  A
O386        C388   1.268       .  A
C388        C545   1.479       .  S
O389        C394   1.270       .  A
O390        C392   1.270       .  A
C391        C524   1.485       .  S
C391        O393   1.267       .  A
C392        C557   1.487       .  S
C394        C533   1.484       .  S
C395        C396   1.416       .  A
C395        C400   1.419       .  A
C395        C536   1.498       .  S
C396        C397   1.404       .  A
C396        H401   1.083       .  S
C397        C398   1.401       .  A
C398        C399   1.401       .  A
C398        H402   1.083       .  S
C399        C400   1.404       .  A
C400        H403   1.081       .  S
C404        C405   1.416       .  A
C404        C409   1.415       .  A
C404        C521   1.491       .  S
C405        C406   1.403       .  A
C405        H410   1.079       .  S
C406        C407   1.402   1_545  A
C407        C408   1.402       .  A
C407        H411   1.083       .  S
C408       C1088   1.497       .  S
C408        C409   1.403   1_565  A
C409        H412   1.083   1_545  S
C413        C414   1.416       .  A
C413        C418   1.418       .  A
C413        C512   1.496       .  S
C414        C415   1.402   1_455  A
C414        H419   1.083   1_455  S
C415       C1543   1.494       .  S
C415        C416   1.402   1_655  A
C416        C417   1.402       .  A
C416        H420   1.083   1_455  S
C417        C471   1.500       .  S
C417        C418   1.404       .  A
C418        H421   1.078       .  S
C422        C423   1.414       .  A
C422        C427   1.418       .  A
C422        C500   1.491       .  S
C423        C424   1.401   1_455  A
C423        H428   1.084   1_455  S
C424       C1543   1.495       .  S
C424        C425   1.402   1_655  A
C425        C426   1.402       .  A
C425        H429   1.083   1_455  S
C426        C471   1.502       .  S
C426        C427   1.407       .  A
C427        H430   1.080       .  S
Fe431       O447   2.055   1_554  S
Fe431       O437   2.071   1_554  S
Fe432       O443   2.071       .  S
Fe432       O448   2.071       .  S
Fe432       O442   1.982       .  S
Fe433       O438   2.052       .  S
Fe433       O434   2.059       .  S
Fe433       O442   1.979       .  S
O434        C441   1.266       .  A
O435        C449   1.269       .  A
O436        C441   1.267       .  A
O437        C440   1.269       .  A
O438        C450   1.268       .  A
O439        C452   1.270       .  A
C440        C584   1.476       .  S
C440        O445   1.267       .  A
C441        C569   1.467       .  S
O443        C446   1.269       .  A
O444        C446   1.268       .  A
C446        C497   1.480       .  S
O447        C452   1.267       .  A
O448        C450   1.270       .  A
C449        C476   1.478       .  S
C449        O451   1.267       .  A
C450        C488   1.475       .  S
C452        C509   1.481       .  S
C453        C454   1.415       .  A
C453        C458   1.416       .  A
C453        C473   1.488       .  S
C454        C455   1.403       .  A
C454        H459   1.084       .  S
C455        C456   1.401       .  A
C456        C457   1.402       .  A
C456        H460   1.083       .  S
C457        C458   1.404       .  A
C458        H461   1.081       .  S
C462        C463   1.416       .  A
C462        C467   1.414       .  A
C462        C485   1.490       .  S
C463        C464   1.404       .  A
C463        H468   1.081       .  S
C464        C465   1.402       .  A
C465        C466   1.402       .  A
C465        H469   1.083       .  S
C466        C467   1.402       .  A
C467        H470   1.083       .  S
C471        C472   1.347       .  D
C472       C1024   1.497       .  S
C473        C474   1.405       .  A
C473        C478   1.414       .  A
C474        C475   1.395       .  A
C474        H479   1.084       .  S
C475        C476   1.409       .  A
C475        O480   1.372       .  S
C476        C477   1.404       .  A
C477        C478   1.404       .  A
C477        H481   1.084       .  S
C478        O482   1.371       .  S
O480        H484   0.992       .  S
O482        H483   0.992       .  S
C485        C486   1.409       .  A
C485        C490   1.414       .  A
C486        C487   1.403       .  A
C486        H491   1.082       .  S
C487        C488   1.408       .  A
C487        O492   1.372       .  S
C488        C489   1.401       .  A
C489        C490   1.394       .  A
C489        H493   1.084       .  S
C490        O494   1.372       .  S
O492        H496   0.992       .  S
O494        H495   0.992       .  S
C497        C498   1.406       .  A
C497        C502   1.408       .  A
C498        C499   1.405       .  A
C498        H503   1.084       .  S
C499        C500   1.414       .  A
C499        O504   1.371       .  S
C500        C501   1.406       .  A
C501        C502   1.394       .  A
C501        H505   1.084       .  S
C502        O506   1.372       .  S
O504        H508   0.992       .  S
O506        H507   0.992       .  S
C509        C510   1.404       .  A
C509        C514   1.408       .  A
C510        C511   1.406       .  A
C510        H515   1.084       .  S
C511        C512   1.416       .  A
C511        O516   1.372       .  S
C512        C513   1.407       .  A
C513        C514   1.394       .  A
C513        H517   1.083       .  S
C514        O518   1.372       .  S
O516        H520   0.992       .  S
O518        H519   0.991       .  S
C521        C522   1.405       .  A
C521        C526   1.414       .  A
C522        C523   1.395       .  A
C522        H527   1.084       .  S
C523        C524   1.412       .  A
C523        O528   1.372       .  S
C524        C525   1.405       .  A
C525        C526   1.406       .  A
C525        H529   1.084       .  S
C526        O530   1.372       .  S
O528        H532   0.992       .  S
O530        H531   0.992       .  S
C533        C534   1.403       .  A
C533        C538   1.409       .  A
C534        C535   1.397       .  A
C534        H539   1.084       .  S
C535        C536   1.415       .  A
C535        O540   1.373       .  S
C536        C537   1.411       .  A
C537        C538   1.404       .  A
C537        H541   1.081       .  S
C538        O542   1.372       .  S
O540        H544   0.992       .  S
O542        H543   0.992       .  S
C545        C546   1.399       .  A
C545        C550   1.409       .  A
C546        C547   1.398       .  A
C546        H551   1.084       .  S
C547        C548   1.417       .  A
C547        O552   1.373       .  S
C548        C549   1.409       .  A
C549        C550   1.403       .  A
C549        H553   1.082       .  S
C550        O554   1.372       .  S
O552        H556   0.992       .  S
O554        H555   0.992       .  S
C557        C558   1.405       .  A
C557        C562   1.410       .  A
C558        C559   1.398       .  A
C558        H563   1.084       .  S
C559        C560   1.413       .  A
C559        O564   1.373       .  S
C560        C561   1.409       .  A
C561        C562   1.404       .  A
C561        H565   1.082       .  S
C562        O566   1.372       .  S
O564        H568   0.992       .  S
O566        H567   0.992       .  S
C569        C570   1.399       .  A
C569        C574   1.408       .  A
C570        C571   1.394       .  A
C570        H575   1.084       .  S
C571        C572   1.407       .  A
C571        O576   1.372       .  S
C572        C573   1.405       .  A
C573        C574   1.405       .  A
C573        H577   1.083       .  S
C574        O578   1.371       .  S
O576        H580   0.992       .  S
O578        H579   0.992       .  S
C581        C582   1.409       .  A
C581        C586   1.413       .  A
C582        C583   1.403       .  A
C582        H587   1.082       .  S
C583        C584   1.408       .  A
C583        O588   1.372       .  S
C584        C585   1.401       .  A
C585        C586   1.396       .  A
C585        H589   1.084       .  S
C586        O590   1.372       .  S
O588        H592   0.992       .  S
O590        H591   0.992       .  S
C593        C594   1.404       .  A
C593        C598   1.412       .  A
C594        C595   1.395       .  A
C594        H599   1.084       .  S
C595        C596   1.410       .  A
C595        O600   1.372       .  S
C596        C597   1.405       .  A
C597        C598   1.404       .  A
C597        H601   1.084       .  S
C598        O602   1.371       .  S
O600        H604   0.992       .  S
O602        H603   0.991       .  S
C605        C606   1.403       .  A
C605        C610   1.404       .  A
C606        C607   1.404       .  A
C606        H611   1.083       .  S
C607        C608   1.406       .  A
C607        O612   1.371       .  S
C608        C609   1.399       .  A
C609        C610   1.393       .  A
C609        H613   1.084       .  S
C610        O614   1.372       .  S
O612        H616   0.992       .  S
O614        H615   0.992       .  S
C617        C618   1.345       .  D
C617        C674   1.492       .  S
C617        C705   1.494       .  S
C618        C763   1.496       .  S
C618        C774   1.494       .  S
C619        C620   1.347       .  D
C619       C1955   1.494       .  S
C619       C1964   1.495       .  S
C620        C676   1.504       .  S
C620        C707   1.501       .  S
C621        C622   1.346       .  D
C621        C647   1.499       .  S
C621        C654   1.497       .  S
C622        C625   1.495       .  S
C622        C634   1.498       .  S
C623        C624   1.407       .  A
C623        C628   1.409       .  A
C623        C916   1.466       .  S
C624        C625   1.401       .  A
C624        H629   1.083       .  S
C625        C626   1.403       .  A
C626        C627   1.404       .  A
C626        H630   1.083       .  S
C627        C628   1.404       .  A
C628        H631   1.083       .  S
C632        C633   1.415       .  A
C632        C637   1.415       .  A
C632        C901   1.486       .  S
C633        C634   1.403       .  A
C633        H638   1.083       .  S
C634        C635   1.402       .  A
C635        C636   1.403       .  A
C635        H639   1.083       .  S
C636        C637   1.403       .  A
C637        H640   1.081       .  S
C641        C642   1.346       .  D
C642        C765   1.500       .  S
C642        C772   1.499       .  S
C643        C644   1.415       .  A
C643        C648   1.416       .  A
C643        C889   1.489       .  S
C644        C645   1.403       .  A
C644        H649   1.083       .  S
C645        C661   1.498       .  S
C645        C646   1.402   1_455  A
C646       C1879   1.402       .  A
C646        H650   1.083       .  S
C647       C1878   1.402       .  A
C647       C1880   1.404       .  A
C648       C1879   1.404   1_455  A
C648       H1883   1.082   1_455  S
H651       C1880   1.082       .  S
C652        C653   1.410       .  A
C652        C657   1.411       .  A
C652        C880   1.473       .  S
C653       C1886   1.405   1_455  A
C653       H1890   1.083   1_455  S
C654       C1885   1.405       .  A
C654       C1887   1.404       .  A
C655       C1886   1.404       .  A
C655        C656   1.403   1_655  A
C655        H659   1.083       .  S
C656        C661   1.499       .  S
C656        C657   1.403       .  A
C657        H660   1.083       .  S
H658       C1885   1.083       .  S
C661        C662   1.346       .  D
C662        C667   1.498       .  S
C662        C714   1.498       .  S
C663        C664   1.417       .  A
C663        C668   1.416       .  A
C663        C868   1.494       .  S
C665        C780   1.499       .  S
C666        C667   1.402       .  A
C666        H670   1.083       .  S
C667        C668   1.405       .  A
C668        H671   1.083       .  S
C672        C673   1.414       .  A
C672        C677   1.421       .  A
C672        C856   1.496       .  S
C673        C674   1.401       .  A
C673        H678   1.083       .  S
C674        C675   1.402       .  A
C675        C676   1.402       .  A
C675        H679   1.083       .  S
C676        C677   1.407       .  A
C677        H680   1.081       .  S
Fe681       O697   2.072   1_556  S
Fe681       O687   2.060   1_556  S
Fe681      O1002   2.063       .  S
Fe681       O994   2.061       .  S
Fe681      O1000   1.975       .  S
Fe682       O993   2.069       .  S
Fe682       O997   2.057       .  S
Fe682       O693   2.067       .  S
Fe682       O698   2.063       .  S
Fe682       O692   1.972       .  S
Fe683      O1009   2.058       .  S
Fe683       O688   2.072       .  S
Fe683      O1003   2.071       .  S
Fe683       O684   2.059       .  S
Fe683       O692   1.975       .  S
O684        C691   1.266       .  A
O685       Fe990   2.069       .  S
O685        C699   1.269       .  A
O686       Fe989   2.061       .  S
O686        C691   1.266       .  A
O687        C690   1.269       .  A
O688        C700   1.271       .  A
O689       Fe990   2.057       .  S
O689        C702   1.268       .  A
C690        C904   1.480       .  S
C690        O695   1.271       .  A
C691        C913   1.462       .  S
O692       Fe989   1.975       .  S
O693        C696   1.270       .  A
O694       Fe989   2.063       .  S
O694        C696   1.268       .  A
O695       Fe991   2.071   1_554  S
C696        C853   1.479       .  S
O697        C702   1.270       .  A
O698        C700   1.270       .  A
C699        C832   1.485       .  S
C699        O701   1.267       .  A
C700        C865   1.487       .  S
O701       Fe991   2.058   1_554  S
C702        C841   1.484       .  S
C703        C704   1.416       .  A
C703        C708   1.419       .  A
C703        C844   1.498       .  S
C704        C705   1.404       .  A
C704        H709   1.083       .  S
C705        C706   1.401       .  A
C706        C707   1.401       .  A
C706        H710   1.083       .  S
C707        C708   1.404       .  A
C708        H711   1.081       .  S
C712        C713   1.416       .  A
C712        C717   1.415       .  A
C712        C829   1.491       .  S
C713        C714   1.403       .  A
C713        H718   1.079       .  S
C714        C715   1.402       .  A
C715        C716   1.402       .  A
C715        H719   1.083       .  S
C716        C717   1.403       .  A
C717        H720   1.083       .  S
C721        C722   1.416       .  A
C721        C726   1.418       .  A
C721        C820   1.496       .  S
C722        C723   1.402   1_455  A
C722        H727   1.083   1_455  S
C723       C1851   1.494       .  S
C723        C724   1.402   1_655  A
C724        C725   1.402       .  A
C724        H728   1.083   1_455  S
C725        C779   1.500       .  S
C725        C726   1.404       .  A
C726        H729   1.078       .  S
C730        C731   1.414       .  A
C730        C735   1.418       .  A
C730        C808   1.491       .  S
C731        C732   1.401   1_455  A
C731        H736   1.084   1_455  S
C732       C1851   1.495       .  S
C732        C733   1.402   1_655  A
C733        C734   1.402       .  A
C733        H737   1.083   1_455  S
C734        C779   1.502       .  S
C734        C735   1.407       .  A
C735        H738   1.080       .  S
Fe739       O755   2.055       .  S
Fe739       O745   2.071       .  S
Fe739      O1060   2.060       .  S
Fe739      O1052   2.067       .  S
Fe739      O1058   1.977       .  S
Fe740      O1051   2.071   1_554  S
Fe740      O1055   2.073   1_554  S
Fe740       O751   2.071       .  S
Fe740       O756   2.071       .  S
Fe740       O750   1.982       .  S
Fe741      O1067   2.056   1_554  S
Fe741       O746   2.052       .  S
Fe741      O1061   2.055   1_554  S
Fe741       O742   2.059       .  S
Fe741       O750   1.979       .  S
O742        C749   1.266       .  A
O743      Fe1048   2.071       .  S
O743        C757   1.269       .  A
O744      Fe1047   2.067       .  S
O744        C749   1.267       .  A
O745        C748   1.269       .  A
O746        C758   1.268       .  A
O747      Fe1048   2.073       .  S
O747        C760   1.270       .  A
C748        C892   1.476       .  S
C748        O753   1.267       .  A
C749        C877   1.467       .  S
O750      Fe1047   1.977       .  S
O751        C754   1.269       .  A
O752      Fe1047   2.060       .  S
O752        C754   1.268       .  A
O753      Fe1049   2.055       .  S
C754        C805   1.480       .  S
O755        C760   1.267       .  A
O756        C758   1.270       .  A
C757        C784   1.478       .  S
C757        O759   1.267       .  A
C758        C796   1.475       .  S
O759      Fe1049   2.056       .  S
C760        C817   1.481       .  S
C761        C762   1.415       .  A
C761        C766   1.416       .  A
C761        C781   1.488       .  S
C762        C763   1.403       .  A
C762        H767   1.084       .  S
C763        C764   1.401       .  A
C764        C765   1.402       .  A
C764        H768   1.083       .  S
C765        C766   1.404       .  A
C766        H769   1.081       .  S
C770        C771   1.416       .  A
C770        C775   1.414       .  A
C770        C793   1.490       .  S
C771        C772   1.404       .  A
C771        H776   1.081       .  S
C772        C773   1.402       .  A
C773        C774   1.402       .  A
C773        H777   1.083       .  S
C774        C775   1.402       .  A
C775        H778   1.083       .  S
C779        C780   1.347       .  D
C781        C782   1.405       .  A
C781        C786   1.414       .  A
C782        C783   1.395       .  A
C782        H787   1.084       .  S
C783        C784   1.409       .  A
C783        O788   1.372       .  S
C784        C785   1.404       .  A
C785        C786   1.404       .  A
C785        H789   1.084       .  S
C786        O790   1.371       .  S
O788        H792   0.992       .  S
O790        H791   0.992       .  S
C793        C794   1.409       .  A
C793        C798   1.414       .  A
C794        C795   1.403       .  A
C794        H799   1.082       .  S
C795        C796   1.408       .  A
C795        O800   1.372       .  S
C796        C797   1.401       .  A
C797        C798   1.394       .  A
C797        H801   1.084       .  S
C798        O802   1.372       .  S
O800        H804   0.992       .  S
O802        H803   0.992       .  S
C805        C806   1.406       .  A
C805        C810   1.408       .  A
C806        C807   1.405       .  A
C806        H811   1.084       .  S
C807        C808   1.414       .  A
C807        O812   1.371       .  S
C808        C809   1.406       .  A
C809        C810   1.394       .  A
C809        H813   1.084       .  S
C810        O814   1.372       .  S
O812        H816   0.992       .  S
O814        H815   0.992       .  S
C817        C818   1.404       .  A
C817        C822   1.408       .  A
C818        C819   1.406       .  A
C818        H823   1.084       .  S
C819        C820   1.416       .  A
C819        O824   1.372       .  S
C820        C821   1.407       .  A
C821        C822   1.394       .  A
C821        H825   1.083       .  S
C822        O826   1.372       .  S
O824        H828   0.992       .  S
O826        H827   0.991       .  S
C829        C830   1.405       .  A
C829        C834   1.414       .  A
C830        C831   1.395       .  A
C830        H835   1.084       .  S
C831        C832   1.412       .  A
C831        O836   1.372       .  S
C832        C833   1.405       .  A
C833        C834   1.406       .  A
C833        H837   1.084       .  S
C834        O838   1.372       .  S
O836        H840   0.992       .  S
O838        H839   0.992       .  S
C841        C842   1.403       .  A
C841        C846   1.409       .  A
C842        C843   1.397       .  A
C842        H847   1.084       .  S
C843        C844   1.415       .  A
C843        O848   1.373       .  S
C844        C845   1.411       .  A
C845        C846   1.404       .  A
C845        H849   1.081       .  S
C846        O850   1.372       .  S
O848        H852   0.992       .  S
O850        H851   0.992       .  S
C853        C854   1.399       .  A
C853        C858   1.409       .  A
C854        C855   1.398       .  A
C854        H859   1.084       .  S
C855        C856   1.417       .  A
C855        O860   1.373       .  S
C856        C857   1.409       .  A
C857        C858   1.403       .  A
C857        H861   1.082       .  S
C858        O862   1.372       .  S
O860        H864   0.992       .  S
O862        H863   0.992       .  S
C865        C866   1.405       .  A
C865        C870   1.410       .  A
C866        C867   1.398       .  A
C866        H871   1.084       .  S
C867        C868   1.413       .  A
C867        O872   1.373       .  S
C868        C869   1.409       .  A
C869        C870   1.404       .  A
C869        H873   1.082       .  S
C870        O874   1.372       .  S
O872        H876   0.992       .  S
O874        H875   0.992       .  S
C877        C878   1.399       .  A
C877        C882   1.408       .  A
C878        C879   1.394       .  A
C878        H883   1.084       .  S
C879        C880   1.407       .  A
C879        O884   1.372       .  S
C880        C881   1.405       .  A
C881        C882   1.405       .  A
C881        H885   1.083       .  S
C882        O886   1.371       .  S
O884        H888   0.992       .  S
O886        H887   0.992       .  S
C889        C890   1.409       .  A
C889        C894   1.413       .  A
C890        C891   1.403       .  A
C890        H895   1.082       .  S
C891        C892   1.408       .  A
C891        O896   1.372       .  S
C892        C893   1.401       .  A
C893        C894   1.396       .  A
C893        H897   1.084       .  S
C894        O898   1.372       .  S
O896        H900   0.992       .  S
O898        H899   0.992       .  S
C901        C902   1.404       .  A
C901        C906   1.412       .  A
C902        C903   1.395       .  A
C902        H907   1.084       .  S
C903        C904   1.410       .  A
C903        O908   1.372       .  S
C904        C905   1.405       .  A
C905        C906   1.404       .  A
C905        H909   1.084       .  S
C906        O910   1.371       .  S
O908        H912   0.992       .  S
O910        H911   0.991       .  S
C913        C914   1.403       .  A
C913        C918   1.404       .  A
C914        C915   1.404       .  A
C914        H919   1.083       .  S
C915        C916   1.406       .  A
C915        O920   1.371       .  S
C916        C917   1.399       .  A
C917        C918   1.393       .  A
C917        H921   1.084       .  S
C918        O922   1.372       .  S
O920        H924   0.992       .  S
O922        H923   0.992       .  S
C925        C926   1.345       .  D
C925        C982   1.492       .  S
C925       C1013   1.494       .  S
C926       C1071   1.496       .  S
C926       C1082   1.494       .  S
C927        C928   1.347       .  D
C927       C2263   1.494       .  S
C927       C2272   1.495       .  S
C928        C984   1.504       .  S
C928       C1015   1.501       .  S
C929        C930   1.346       .  D
C929        C955   1.499       .  S
C929        C962   1.497       .  S
C930        C933   1.495       .  S
C930        C942   1.498       .  S
C931        C932   1.407       .  A
C931        C936   1.409       .  A
C931       C1224   1.466       .  S
C932        C933   1.401       .  A
C932        H937   1.083       .  S
C933        C934   1.403       .  A
C934        C935   1.404       .  A
C934        H938   1.083       .  S
C935        C936   1.404       .  A
C936        H939   1.083       .  S
C940        C941   1.415       .  A
C940        C945   1.415       .  A
C940       C1209   1.486       .  S
C941        C942   1.403       .  A
C941        H946   1.083       .  S
C942        C943   1.402       .  A
C943        C944   1.403       .  A
C943        H947   1.083       .  S
C944        C945   1.403       .  A
C945        H948   1.081       .  S
C949        C950   1.346       .  D
C950       C1073   1.500       .  S
C950       C1080   1.499       .  S
C951        C952   1.415       .  A
C951        C956   1.416       .  A
C951       C1197   1.489       .  S
C952        C953   1.403       .  A
C952        H957   1.083       .  S
C953        C969   1.498       .  S
C953        C954   1.402   1_455  A
C954       C2187   1.402       .  A
C954        H958   1.083       .  S
C955       C2186   1.402       .  A
C955       C2188   1.404       .  A
C956       C2187   1.404   1_455  A
C956       H2191   1.082   1_455  S
H959       C2188   1.082       .  S
C960        C961   1.410       .  A
C960        C965   1.411       .  A
C960       C1188   1.473       .  S
C961       C2194   1.405   1_455  A
C961       H2198   1.083   1_455  S
C962       C2193   1.405       .  A
C962       C2195   1.404       .  A
C963       C2194   1.404       .  A
C963        C964   1.403   1_655  A
C963        H967   1.083       .  S
C964        C969   1.499       .  S
C964        C965   1.403       .  A
C965        H968   1.083       .  S
H966       C2193   1.083       .  S
C969        C970   1.346       .  D
C970        C975   1.498       .  S
C970       C1022   1.498       .  S
C971        C972   1.417       .  A
C971        C976   1.416       .  A
C971       C1176   1.494       .  S
C973       C1088   1.499       .  S
C974        C975   1.402       .  A
C974        H978   1.083       .  S
C975        C976   1.405       .  A
C976        H979   1.083       .  S
C980        C981   1.414       .  A
C980        C985   1.421       .  A
C980       C1164   1.496       .  S
C981        C982   1.401       .  A
C981        H986   1.083       .  S
C982        C983   1.402       .  A
C983        C984   1.402       .  A
C983        H987   1.083       .  S
C984        C985   1.407       .  A
C985        H988   1.081       .  S
Fe989      O1005   2.072       .  S
Fe989       O995   2.060       .  S
Fe990      O1001   2.067   1_554  S
Fe990      O1006   2.063   1_554  S
Fe990      O1000   1.972   1_554  S
Fe991       O996   2.072       .  S
Fe991       O992   2.059       .  S
Fe991      O1000   1.975       .  S
O992        C999   1.266       .  A
O993       C1007   1.269       .  A
O994        C999   1.266       .  A
O995        C998   1.269       .  A
O996       C1008   1.271       .  A
O997       C1010   1.268       .  A
C998       C1212   1.480       .  S
C998       O1003   1.271       .  A
C999       C1221   1.462       .  S
O1001      C1004   1.270       .  A
O1002      C1004   1.268       .  A
C1004      C1161   1.479       .  S
O1005      C1010   1.270       .  A
O1006      C1008   1.270       .  A
C1007      C1140   1.485       .  S
C1007      O1009   1.267       .  A
C1008      C1173   1.487       .  S
C1010      C1149   1.484       .  S
C1011      C1012   1.416       .  A
C1011      C1016   1.419       .  A
C1011      C1152   1.498       .  S
C1012      C1013   1.404       .  A
C1012      H1017   1.083       .  S
C1013      C1014   1.401       .  A
C1014      C1015   1.401       .  A
C1014      H1018   1.083       .  S
C1015      C1016   1.404       .  A
C1016      H1019   1.081       .  S
C1020      C1021   1.416       .  A
C1020      C1025   1.415       .  A
C1020      C1137   1.491       .  S
C1021      C1022   1.403       .  A
C1021      H1026   1.079       .  S
C1022      C1023   1.402       .  A
C1023      C1024   1.402       .  A
C1023      H1027   1.083       .  S
C1024      C1025   1.403       .  A
C1025      H1028   1.083       .  S
C1029      C1030   1.416       .  A
C1029      C1034   1.418       .  A
C1029      C1128   1.496       .  S
C1030      C1031   1.402   1_455  A
C1030      H1035   1.083   1_455  S
C1031      C2159   1.494       .  S
C1031      C1032   1.402   1_655  A
C1032      C1033   1.402       .  A
C1032      H1036   1.083   1_455  S
C1033      C1087   1.500       .  S
C1033      C1034   1.404       .  A
C1034      H1037   1.078       .  S
C1038      C1039   1.414       .  A
C1038      C1043   1.418       .  A
C1038      C1116   1.491       .  S
C1039      C1040   1.401   1_455  A
C1039      H1044   1.084   1_455  S
C1040      C2159   1.495       .  S
C1040      C1041   1.402   1_655  A
C1041      C1042   1.402       .  A
C1041      H1045   1.083   1_455  S
C1042      C1087   1.502       .  S
C1042      C1043   1.407       .  A
C1043      H1046   1.080       .  S
Fe1047     O1063   2.055   1_554  S
Fe1047     O1053   2.071   1_554  S
Fe1048     O1059   2.071       .  S
Fe1048     O1064   2.071       .  S
Fe1048     O1058   1.982       .  S
Fe1049     O1054   2.052       .  S
Fe1049     O1050   2.059       .  S
Fe1049     O1058   1.979       .  S
O1050      C1057   1.266       .  A
O1051      C1065   1.269       .  A
O1052      C1057   1.267       .  A
O1053      C1056   1.269       .  A
O1054      C1066   1.268       .  A
O1055      C1068   1.270       .  A
C1056      C1200   1.476       .  S
C1056      O1061   1.267       .  A
C1057      C1185   1.467       .  S
O1059      C1062   1.269       .  A
O1060      C1062   1.268       .  A
C1062      C1113   1.480       .  S
O1063      C1068   1.267       .  A
O1064      C1066   1.270       .  A
C1065      C1092   1.478       .  S
C1065      O1067   1.267       .  A
C1066      C1104   1.475       .  S
C1068      C1125   1.481       .  S
C1069      C1070   1.415       .  A
C1069      C1074   1.416       .  A
C1069      C1089   1.488       .  S
C1070      C1071   1.403       .  A
C1070      H1075   1.084       .  S
C1071      C1072   1.401       .  A
C1072      C1073   1.402       .  A
C1072      H1076   1.083       .  S
C1073      C1074   1.404       .  A
C1074      H1077   1.081       .  S
C1078      C1079   1.416       .  A
C1078      C1083   1.414       .  A
C1078      C1101   1.490       .  S
C1079      C1080   1.404       .  A
C1079      H1084   1.081       .  S
C1080      C1081   1.402       .  A
C1081      C1082   1.402       .  A
C1081      H1085   1.083       .  S
C1082      C1083   1.402       .  A
C1083      H1086   1.083       .  S
C1087      C1088   1.347       .  D
C1089      C1090   1.405       .  A
C1089      C1094   1.414       .  A
C1090      C1091   1.395       .  A
C1090      H1095   1.084       .  S
C1091      C1092   1.409       .  A
C1091      O1096   1.372       .  S
C1092      C1093   1.404       .  A
C1093      C1094   1.404       .  A
C1093      H1097   1.084       .  S
C1094      O1098   1.371       .  S
O1096      H1100   0.992       .  S
O1098      H1099   0.992       .  S
C1101      C1102   1.409       .  A
C1101      C1106   1.414       .  A
C1102      C1103   1.403       .  A
C1102      H1107   1.082       .  S
C1103      C1104   1.408       .  A
C1103      O1108   1.372       .  S
C1104      C1105   1.401       .  A
C1105      C1106   1.394       .  A
C1105      H1109   1.084       .  S
C1106      O1110   1.372       .  S
O1108      H1112   0.992       .  S
O1110      H1111   0.992       .  S
C1113      C1114   1.406       .  A
C1113      C1118   1.408       .  A
C1114      C1115   1.405       .  A
C1114      H1119   1.084       .  S
C1115      C1116   1.414       .  A
C1115      O1120   1.371       .  S
C1116      C1117   1.406       .  A
C1117      C1118   1.394       .  A
C1117      H1121   1.084       .  S
C1118      O1122   1.372       .  S
O1120      H1124   0.992       .  S
O1122      H1123   0.992       .  S
C1125      C1126   1.404       .  A
C1125      C1130   1.408       .  A
C1126      C1127   1.406       .  A
C1126      H1131   1.084       .  S
C1127      C1128   1.416       .  A
C1127      O1132   1.372       .  S
C1128      C1129   1.407       .  A
C1129      C1130   1.394       .  A
C1129      H1133   1.083       .  S
C1130      O1134   1.372       .  S
O1132      H1136   0.992       .  S
O1134      H1135   0.991       .  S
C1137      C1138   1.405       .  A
C1137      C1142   1.414       .  A
C1138      C1139   1.395       .  A
C1138      H1143   1.084       .  S
C1139      C1140   1.412       .  A
C1139      O1144   1.372       .  S
C1140      C1141   1.405       .  A
C1141      C1142   1.406       .  A
C1141      H1145   1.084       .  S
C1142      O1146   1.372       .  S
O1144      H1148   0.992       .  S
O1146      H1147   0.992       .  S
C1149      C1150   1.403       .  A
C1149      C1154   1.409       .  A
C1150      C1151   1.397       .  A
C1150      H1155   1.084       .  S
C1151      C1152   1.415       .  A
C1151      O1156   1.373       .  S
C1152      C1153   1.411       .  A
C1153      C1154   1.404       .  A
C1153      H1157   1.081       .  S
C1154      O1158   1.372       .  S
O1156      H1160   0.992       .  S
O1158      H1159   0.992       .  S
C1161      C1162   1.399       .  A
C1161      C1166   1.409       .  A
C1162      C1163   1.398       .  A
C1162      H1167   1.084       .  S
C1163      C1164   1.417       .  A
C1163      O1168   1.373       .  S
C1164      C1165   1.409       .  A
C1165      C1166   1.403       .  A
C1165      H1169   1.082       .  S
C1166      O1170   1.372       .  S
O1168      H1172   0.992       .  S
O1170      H1171   0.992       .  S
C1173      C1174   1.405       .  A
C1173      C1178   1.410       .  A
C1174      C1175   1.398       .  A
C1174      H1179   1.084       .  S
C1175      C1176   1.413       .  A
C1175      O1180   1.373       .  S
C1176      C1177   1.409       .  A
C1177      C1178   1.404       .  A
C1177      H1181   1.082       .  S
C1178      O1182   1.372       .  S
O1180      H1184   0.992       .  S
O1182      H1183   0.992       .  S
C1185      C1186   1.399       .  A
C1185      C1190   1.408       .  A
C1186      C1187   1.394       .  A
C1186      H1191   1.084       .  S
C1187      C1188   1.407       .  A
C1187      O1192   1.372       .  S
C1188      C1189   1.405       .  A
C1189      C1190   1.405       .  A
C1189      H1193   1.083       .  S
C1190      O1194   1.371       .  S
O1192      H1196   0.992       .  S
O1194      H1195   0.992       .  S
C1197      C1198   1.409       .  A
C1197      C1202   1.413       .  A
C1198      C1199   1.403       .  A
C1198      H1203   1.082       .  S
C1199      C1200   1.408       .  A
C1199      O1204   1.372       .  S
C1200      C1201   1.401       .  A
C1201      C1202   1.396       .  A
C1201      H1205   1.084       .  S
C1202      O1206   1.372       .  S
O1204      H1208   0.992       .  S
O1206      H1207   0.992       .  S
C1209      C1210   1.404       .  A
C1209      C1214   1.412       .  A
C1210      C1211   1.395       .  A
C1210      H1215   1.084       .  S
C1211      C1212   1.410       .  A
C1211      O1216   1.372       .  S
C1212      C1213   1.405       .  A
C1213      C1214   1.404       .  A
C1213      H1217   1.084       .  S
C1214      O1218   1.371       .  S
O1216      H1220   0.992       .  S
O1218      H1219   0.991       .  S
C1221      C1222   1.403       .  A
C1221      C1226   1.404       .  A
C1222      C1223   1.404       .  A
C1222      H1227   1.083       .  S
C1223      C1224   1.406       .  A
C1223      O1228   1.371       .  S
C1224      C1225   1.399       .  A
C1225      C1226   1.393       .  A
C1225      H1229   1.084       .  S
C1226      O1230   1.372       .  S
O1228      H1232   0.992       .  S
O1230      H1231   0.992       .  S
C1233      C1234   1.345       .  D
C1233      C1290   1.492       .  S
C1233      C1321   1.494       .  S
C1234      C1379   1.496       .  S
C1234      C1390   1.494       .  S
C1235      C1236   1.347       .  D
C1236      C1292   1.504       .  S
C1236      C1323   1.501       .  S
C1237      C1238   1.346       .  D
C1237      C1263   1.499       .  S
C1237      C1270   1.497       .  S
C1238      C1241   1.495       .  S
C1238      C1250   1.498       .  S
C1239      C1240   1.407       .  A
C1239      C1244   1.409       .  A
C1239      C1532   1.466       .  S
C1240      C1241   1.401       .  A
C1240      H1245   1.083       .  S
C1241      C1242   1.403       .  A
C1242      C1243   1.404   1_545  A
C1242      H1246   1.083   1_545  S
C1243      C1873   1.497       .  S
C1243      C1244   1.404   1_565  A
C1244      H1247   1.083   1_545  S
C1248      C1249   1.415       .  A
C1248      C1253   1.415       .  A
C1248      C1517   1.486       .  S
C1249      C1250   1.403       .  A
C1249      H1254   1.083       .  S
C1250      C1251   1.402       .  A
C1251      C1252   1.403   1_545  A
C1251      H1255   1.083   1_545  S
C1252      C1873   1.498       .  S
C1252      C1253   1.403   1_565  A
C1253      H1256   1.081   1_545  S
C1257      C1258   1.346       .  D
C1257      C1859   1.497       .  S
C1257      C1868   1.498       .  S
C1258      C1381   1.500       .  S
C1258      C1388   1.499       .  S
C1259      C1260   1.415       .  A
C1259      C1264   1.416       .  A
C1259      C1505   1.489       .  S
C1260      C1261   1.403       .  A
C1260      H1265   1.083       .  S
C1261      C1277   1.498       .  S
C1261      C1262   1.402       .  A
C1262      H1266   1.083       .  S
C1268      C1269   1.410       .  A
C1268      C1273   1.411       .  A
C1268      C1496   1.473       .  S
C1271      C1272   1.403       .  A
C1271      H1275   1.083       .  S
C1272      C1277   1.499       .  S
C1272      C1273   1.403       .  A
C1273      H1276   1.083       .  S
C1277      C1278   1.346       .  D
C1278      C1283   1.498       .  S
C1278      C1330   1.498       .  S
C1279      C1280   1.417   1_545  A
C1279      C1284   1.416       .  A
C1279      C1484   1.494       .  S
C1280      C1897   1.403       .  A
C1280      H1901   1.081       .  S
C1281      C1396   1.499       .  S
C1281      C1896   1.403       .  A
C1281      C1898   1.402       .  A
C1282      C1897   1.402   1_545  A
C1282      C1283   1.402       .  A
C1282      H1286   1.083   1_545  S
C1283      C1284   1.405       .  A
C1284      H1287   1.083       .  S
H1285      C1896   1.081       .  S
C1288      C1289   1.414       .  A
C1288      C1293   1.421       .  A
C1288      C1472   1.496       .  S
C1289      C1290   1.401       .  A
C1289      H1294   1.083       .  S
C1290      C1291   1.402       .  A
C1291      C1292   1.402       .  A
C1291      H1295   1.083       .  S
C1292      C1293   1.407       .  A
C1293      H1296   1.081       .  S
Fe1297     O1313   2.072   1_556  S
Fe1297     O1303   2.060   1_556  S
Fe1297     O1618   2.063       .  S
Fe1297     O1610   2.061       .  S
Fe1297     O1616   1.975       .  S
Fe1298     O1609   2.069       .  S
Fe1298     O1613   2.057       .  S
Fe1298     O1309   2.067       .  S
Fe1298     O1314   2.063       .  S
Fe1298     O1308   1.972       .  S
Fe1299     O1625   2.058       .  S
Fe1299     O1304   2.072       .  S
Fe1299     O1619   2.071       .  S
Fe1299     O1300   2.059       .  S
Fe1299     O1308   1.975       .  S
O1300      C1307   1.266       .  A
O1301     Fe1606   2.069       .  S
O1301      C1315   1.269       .  A
O1302     Fe1605   2.061       .  S
O1302      C1307   1.266       .  A
O1303      C1306   1.269       .  A
O1304      C1316   1.271       .  A
O1305     Fe1606   2.057       .  S
O1305      C1318   1.268       .  A
C1306      C1520   1.480       .  S
C1306      O1311   1.271       .  A
C1307      C1529   1.462       .  S
O1308     Fe1605   1.975       .  S
O1309      C1312   1.270       .  A
O1310     Fe1605   2.063       .  S
O1310      C1312   1.268       .  A
O1311     Fe1607   2.071   1_554  S
C1312      C1469   1.479       .  S
O1313      C1318   1.270       .  A
O1314      C1316   1.270       .  A
C1315      C1448   1.485       .  S
C1315      O1317   1.267       .  A
C1316      C1481   1.487       .  S
O1317     Fe1607   2.058   1_554  S
C1318      C1457   1.484       .  S
C1319      C1320   1.416       .  A
C1319      C1324   1.419       .  A
C1319      C1460   1.498       .  S
C1320      C1321   1.404       .  A
C1320      H1325   1.083       .  S
C1321      C1322   1.401       .  A
C1322      C1323   1.401       .  A
C1322      H1326   1.083       .  S
C1323      C1324   1.404       .  A
C1324      H1327   1.081       .  S
C1328      C1329   1.416       .  A
C1328      C1333   1.415       .  A
C1328      C1445   1.491       .  S
C1329      C1330   1.403       .  A
C1329      H1334   1.079       .  S
C1330      C1331   1.402   1_545  A
C1331      C1332   1.402       .  A
C1331      H1335   1.083       .  S
C1332      C2012   1.497       .  S
C1332      C1333   1.403   1_565  A
C1333      H1336   1.083   1_545  S
C1337      C1338   1.416       .  A
C1337      C1342   1.418       .  A
C1337      C1436   1.496       .  S
C1338      C1339   1.402       .  A
C1338      H1343   1.083       .  S
C1339      C1340   1.402       .  A
C1340      C1341   1.402       .  A
C1340      H1344   1.083       .  S
C1341      C1395   1.500       .  S
C1341      C1342   1.404       .  A
C1342      H1345   1.078       .  S
C1346      C1347   1.414       .  A
C1346      C1351   1.418       .  A
C1346      C1424   1.491       .  S
C1347      C1348   1.401       .  A
C1347      H1352   1.084       .  S
C1348      C1349   1.402       .  A
C1349      C1350   1.402       .  A
C1349      H1353   1.083       .  S
C1350      C1395   1.502       .  S
C1350      C1351   1.407       .  A
C1351      H1354   1.080       .  S
Fe1355     O1371   2.055       .  S
Fe1355     O1361   2.071       .  S
Fe1355     O1676   2.060       .  S
Fe1355     O1668   2.067       .  S
Fe1355     O1674   1.977       .  S
Fe1356     O1667   2.071   1_554  S
Fe1356     O1671   2.073   1_554  S
Fe1356     O1367   2.071       .  S
Fe1356     O1372   2.071       .  S
Fe1356     O1366   1.982       .  S
Fe1357     O1683   2.056   1_554  S
Fe1357     O1362   2.052       .  S
Fe1357     O1677   2.055   1_554  S
Fe1357     O1358   2.059       .  S
Fe1357     O1366   1.979       .  S
O1358      C1365   1.266       .  A
O1359     Fe1664   2.071       .  S
O1359      C1373   1.269       .  A
O1360     Fe1663   2.067       .  S
O1360      C1365   1.267       .  A
O1361      C1364   1.269       .  A
O1362      C1374   1.268       .  A
O1363     Fe1664   2.073       .  S
O1363      C1376   1.270       .  A
C1364      C1508   1.476       .  S
C1364      O1369   1.267       .  A
C1365      C1493   1.467       .  S
O1366     Fe1663   1.977       .  S
O1367      C1370   1.269       .  A
O1368     Fe1663   2.060       .  S
O1368      C1370   1.268       .  A
O1369     Fe1665   2.055       .  S
C1370      C1421   1.480       .  S
O1371      C1376   1.267       .  A
O1372      C1374   1.270       .  A
C1373      C1400   1.478       .  S
C1373      O1375   1.267       .  A
C1374      C1412   1.475       .  S
O1375     Fe1665   2.056       .  S
C1376      C1433   1.481       .  S
C1377      C1378   1.415       .  A
C1377      C1382   1.416       .  A
C1377      C1397   1.488       .  S
C1378      C1379   1.403       .  A
C1378      H1383   1.084       .  S
C1379      C1380   1.401       .  A
C1380      C1381   1.402       .  A
C1380      H1384   1.083       .  S
C1381      C1382   1.404       .  A
C1382      H1385   1.081       .  S
C1386      C1387   1.416       .  A
C1386      C1391   1.414       .  A
C1386      C1409   1.490       .  S
C1387      C1388   1.404       .  A
C1387      H1392   1.081       .  S
C1388      C1389   1.402       .  A
C1389      C1390   1.402       .  A
C1389      H1393   1.083       .  S
C1390      C1391   1.402       .  A
C1391      H1394   1.083       .  S
C1395      C1396   1.347       .  D
C1396      C1948   1.497       .  S
C1397      C1398   1.405       .  A
C1397      C1402   1.414       .  A
C1398      C1399   1.395       .  A
C1398      H1403   1.084       .  S
C1399      C1400   1.409       .  A
C1399      O1404   1.372       .  S
C1400      C1401   1.404       .  A
C1401      C1402   1.404       .  A
C1401      H1405   1.084       .  S
C1402      O1406   1.371       .  S
O1404      H1408   0.992       .  S
O1406      H1407   0.992       .  S
C1409      C1410   1.409       .  A
C1409      C1414   1.414       .  A
C1410      C1411   1.403       .  A
C1410      H1415   1.082       .  S
C1411      C1412   1.408       .  A
C1411      O1416   1.372       .  S
C1412      C1413   1.401       .  A
C1413      C1414   1.394       .  A
C1413      H1417   1.084       .  S
C1414      O1418   1.372       .  S
O1416      H1420   0.992       .  S
O1418      H1419   0.992       .  S
C1421      C1422   1.406       .  A
C1421      C1426   1.408       .  A
C1422      C1423   1.405       .  A
C1422      H1427   1.084       .  S
C1423      C1424   1.414       .  A
C1423      O1428   1.371       .  S
C1424      C1425   1.406       .  A
C1425      C1426   1.394       .  A
C1425      H1429   1.084       .  S
C1426      O1430   1.372       .  S
O1428      H1432   0.992       .  S
O1430      H1431   0.992       .  S
C1433      C1434   1.404       .  A
C1433      C1438   1.408       .  A
C1434      C1435   1.406       .  A
C1434      H1439   1.084       .  S
C1435      C1436   1.416       .  A
C1435      O1440   1.372       .  S
C1436      C1437   1.407       .  A
C1437      C1438   1.394       .  A
C1437      H1441   1.083       .  S
C1438      O1442   1.372       .  S
O1440      H1444   0.992       .  S
O1442      H1443   0.991       .  S
C1445      C1446   1.405       .  A
C1445      C1450   1.414       .  A
C1446      C1447   1.395       .  A
C1446      H1451   1.084       .  S
C1447      C1448   1.412       .  A
C1447      O1452   1.372       .  S
C1448      C1449   1.405       .  A
C1449      C1450   1.406       .  A
C1449      H1453   1.084       .  S
C1450      O1454   1.372       .  S
O1452      H1456   0.992       .  S
O1454      H1455   0.992       .  S
C1457      C1458   1.403       .  A
C1457      C1462   1.409       .  A
C1458      C1459   1.397       .  A
C1458      H1463   1.084       .  S
C1459      C1460   1.415       .  A
C1459      O1464   1.373       .  S
C1460      C1461   1.411       .  A
C1461      C1462   1.404       .  A
C1461      H1465   1.081       .  S
C1462      O1466   1.372       .  S
O1464      H1468   0.992       .  S
O1466      H1467   0.992       .  S
C1469      C1470   1.399       .  A
C1469      C1474   1.409       .  A
C1470      C1471   1.398       .  A
C1470      H1475   1.084       .  S
C1471      C1472   1.417       .  A
C1471      O1476   1.373       .  S
C1472      C1473   1.409       .  A
C1473      C1474   1.403       .  A
C1473      H1477   1.082       .  S
C1474      O1478   1.372       .  S
O1476      H1480   0.992       .  S
O1478      H1479   0.992       .  S
C1481      C1482   1.405       .  A
C1481      C1486   1.410       .  A
C1482      C1483   1.398       .  A
C1482      H1487   1.084       .  S
C1483      C1484   1.413       .  A
C1483      O1488   1.373       .  S
C1484      C1485   1.409       .  A
C1485      C1486   1.404       .  A
C1485      H1489   1.082       .  S
C1486      O1490   1.372       .  S
O1488      H1492   0.992       .  S
O1490      H1491   0.992       .  S
C1493      C1494   1.399       .  A
C1493      C1498   1.408       .  A
C1494      C1495   1.394       .  A
C1494      H1499   1.084       .  S
C1495      C1496   1.407       .  A
C1495      O1500   1.372       .  S
C1496      C1497   1.405       .  A
C1497      C1498   1.405       .  A
C1497      H1501   1.083       .  S
C1498      O1502   1.371       .  S
O1500      H1504   0.992       .  S
O1502      H1503   0.992       .  S
C1505      C1506   1.409       .  A
C1505      C1510   1.413       .  A
C1506      C1507   1.403       .  A
C1506      H1511   1.082       .  S
C1507      C1508   1.408       .  A
C1507      O1512   1.372       .  S
C1508      C1509   1.401       .  A
C1509      C1510   1.396       .  A
C1509      H1513   1.084       .  S
C1510      O1514   1.372       .  S
O1512      H1516   0.992       .  S
O1514      H1515   0.992       .  S
C1517      C1518   1.404       .  A
C1517      C1522   1.412       .  A
C1518      C1519   1.395       .  A
C1518      H1523   1.084       .  S
C1519      C1520   1.410       .  A
C1519      O1524   1.372       .  S
C1520      C1521   1.405       .  A
C1521      C1522   1.404       .  A
C1521      H1525   1.084       .  S
C1522      O1526   1.371       .  S
O1524      H1528   0.992       .  S
O1526      H1527   0.991       .  S
C1529      C1530   1.403       .  A
C1529      C1534   1.404       .  A
C1530      C1531   1.404       .  A
C1530      H1535   1.083       .  S
C1531      C1532   1.406       .  A
C1531      O1536   1.371       .  S
C1532      C1533   1.399       .  A
C1533      C1534   1.393       .  A
C1533      H1537   1.084       .  S
C1534      O1538   1.372       .  S
O1536      H1540   0.992       .  S
O1538      H1539   0.992       .  S
C1541      C1542   1.345       .  D
C1541      C1598   1.492       .  S
C1541      C1629   1.494       .  S
C1542      C1687   1.496       .  S
C1542      C1698   1.494       .  S
C1543      C1544   1.347       .  D
C1544      C1600   1.504       .  S
C1544      C1631   1.501       .  S
C1545      C1546   1.346       .  D
C1545      C1571   1.499       .  S
C1545      C1578   1.497       .  S
C1546      C1549   1.495       .  S
C1546      C1558   1.498       .  S
C1547      C1548   1.407       .  A
C1547      C1552   1.409       .  A
C1547      C1840   1.466       .  S
C1548      C1549   1.401       .  A
C1548      H1553   1.083       .  S
C1549      C1550   1.403       .  A
C1550      C1551   1.404   1_545  A
C1550      H1554   1.083   1_545  S
C1551      C2181   1.497       .  S
C1551      C1552   1.404   1_565  A
C1552      H1555   1.083   1_545  S
C1556      C1557   1.415       .  A
C1556      C1561   1.415       .  A
C1556      C1825   1.486       .  S
C1557      C1558   1.403       .  A
C1557      H1562   1.083       .  S
C1558      C1559   1.402       .  A
C1559      C1560   1.403   1_545  A
C1559      H1563   1.083   1_545  S
C1560      C2181   1.498       .  S
C1560      C1561   1.403   1_565  A
C1561      H1564   1.081   1_545  S
C1565      C1566   1.346       .  D
C1565      C2167   1.497       .  S
C1565      C2176   1.498       .  S
C1566      C1689   1.500       .  S
C1566      C1696   1.499       .  S
C1567      C1568   1.415       .  A
C1567      C1572   1.416       .  A
C1567      C1813   1.489       .  S
C1568      C1569   1.403       .  A
C1568      H1573   1.083       .  S
C1569      C1585   1.498       .  S
C1569      C1570   1.402       .  A
C1570      H1574   1.083       .  S
C1576      C1577   1.410       .  A
C1576      C1581   1.411       .  A
C1576      C1804   1.473       .  S
C1579      C1580   1.403       .  A
C1579      H1583   1.083       .  S
C1580      C1585   1.499       .  S
C1580      C1581   1.403       .  A
C1581      H1584   1.083       .  S
C1585      C1586   1.346       .  D
C1586      C1591   1.498       .  S
C1586      C1638   1.498       .  S
C1587      C1588   1.417   1_545  A
C1587      C1592   1.416       .  A
C1587      C1792   1.494       .  S
C1588      C2205   1.403       .  A
C1588      H2209   1.081       .  S
C1589      C1704   1.499       .  S
C1589      C2204   1.403       .  A
C1589      C2206   1.402       .  A
C1590      C2205   1.402   1_545  A
C1590      C1591   1.402       .  A
C1590      H1594   1.083   1_545  S
C1591      C1592   1.405       .  A
C1592      H1595   1.083       .  S
H1593      C2204   1.081       .  S
C1596      C1597   1.414       .  A
C1596      C1601   1.421       .  A
C1596      C1780   1.496       .  S
C1597      C1598   1.401       .  A
C1597      H1602   1.083       .  S
C1598      C1599   1.402       .  A
C1599      C1600   1.402       .  A
C1599      H1603   1.083       .  S
C1600      C1601   1.407       .  A
C1601      H1604   1.081       .  S
Fe1605     O1621   2.072       .  S
Fe1605     O1611   2.060       .  S
Fe1606     O1617   2.067   1_554  S
Fe1606     O1622   2.063   1_554  S
Fe1606     O1616   1.972   1_554  S
Fe1607     O1612   2.072       .  S
Fe1607     O1608   2.059       .  S
Fe1607     O1616   1.975       .  S
O1608      C1615   1.266       .  A
O1609      C1623   1.269       .  A
O1610      C1615   1.266       .  A
O1611      C1614   1.269       .  A
O1612      C1624   1.271       .  A
O1613      C1626   1.268       .  A
C1614      C1828   1.480       .  S
C1614      O1619   1.271       .  A
C1615      C1837   1.462       .  S
O1617      C1620   1.270       .  A
O1618      C1620   1.268       .  A
C1620      C1777   1.479       .  S
O1621      C1626   1.270       .  A
O1622      C1624   1.270       .  A
C1623      C1756   1.485       .  S
C1623      O1625   1.267       .  A
C1624      C1789   1.487       .  S
C1626      C1765   1.484       .  S
C1627      C1628   1.416       .  A
C1627      C1632   1.419       .  A
C1627      C1768   1.498       .  S
C1628      C1629   1.404       .  A
C1628      H1633   1.083       .  S
C1629      C1630   1.401       .  A
C1630      C1631   1.401       .  A
C1630      H1634   1.083       .  S
C1631      C1632   1.404       .  A
C1632      H1635   1.081       .  S
C1636      C1637   1.416       .  A
C1636      C1641   1.415       .  A
C1636      C1753   1.491       .  S
C1637      C1638   1.403       .  A
C1637      H1642   1.079       .  S
C1638      C1639   1.402   1_545  A
C1639      C1640   1.402       .  A
C1639      H1643   1.083       .  S
C1640      C2320   1.497       .  S
C1640      C1641   1.403   1_565  A
C1641      H1644   1.083   1_545  S
C1645      C1646   1.416       .  A
C1645      C1650   1.418       .  A
C1645      C1744   1.496       .  S
C1646      C1647   1.402       .  A
C1646      H1651   1.083       .  S
C1647      C1648   1.402       .  A
C1648      C1649   1.402       .  A
C1648      H1652   1.083       .  S
C1649      C1703   1.500       .  S
C1649      C1650   1.404       .  A
C1650      H1653   1.078       .  S
C1654      C1655   1.414       .  A
C1654      C1659   1.418       .  A
C1654      C1732   1.491       .  S
C1655      C1656   1.401       .  A
C1655      H1660   1.084       .  S
C1656      C1657   1.402       .  A
C1657      C1658   1.402       .  A
C1657      H1661   1.083       .  S
C1658      C1703   1.502       .  S
C1658      C1659   1.407       .  A
C1659      H1662   1.080       .  S
Fe1663     O1679   2.055   1_554  S
Fe1663     O1669   2.071   1_554  S
Fe1664     O1675   2.071       .  S
Fe1664     O1680   2.071       .  S
Fe1664     O1674   1.982       .  S
Fe1665     O1670   2.052       .  S
Fe1665     O1666   2.059       .  S
Fe1665     O1674   1.979       .  S
O1666      C1673   1.266       .  A
O1667      C1681   1.269       .  A
O1668      C1673   1.267       .  A
O1669      C1672   1.269       .  A
O1670      C1682   1.268       .  A
O1671      C1684   1.270       .  A
C1672      C1816   1.476       .  S
C1672      O1677   1.267       .  A
C1673      C1801   1.467       .  S
O1675      C1678   1.269       .  A
O1676      C1678   1.268       .  A
C1678      C1729   1.480       .  S
O1679      C1684   1.267       .  A
O1680      C1682   1.270       .  A
C1681      C1708   1.478       .  S
C1681      O1683   1.267       .  A
C1682      C1720   1.475       .  S
C1684      C1741   1.481       .  S
C1685      C1686   1.415       .  A
C1685      C1690   1.416       .  A
C1685      C1705   1.488       .  S
C1686      C1687   1.403       .  A
C1686      H1691   1.084       .  S
C1687      C1688   1.401       .  A
C1688      C1689   1.402       .  A
C1688      H1692   1.083       .  S
C1689      C1690   1.404       .  A
C1690      H1693   1.081       .  S
C1694      C1695   1.416       .  A
C1694      C1699   1.414       .  A
C1694      C1717   1.490       .  S
C1695      C1696   1.404       .  A
C1695      H1700   1.081       .  S
C1696      C1697   1.402       .  A
C1697      C1698   1.402       .  A
C1697      H1701   1.083       .  S
C1698      C1699   1.402       .  A
C1699      H1702   1.083       .  S
C1703      C1704   1.347       .  D
C1704      C2256   1.497       .  S
C1705      C1706   1.405       .  A
C1705      C1710   1.414       .  A
C1706      C1707   1.395       .  A
C1706      H1711   1.084       .  S
C1707      C1708   1.409       .  A
C1707      O1712   1.372       .  S
C1708      C1709   1.404       .  A
C1709      C1710   1.404       .  A
C1709      H1713   1.084       .  S
C1710      O1714   1.371       .  S
O1712      H1716   0.992       .  S
O1714      H1715   0.992       .  S
C1717      C1718   1.409       .  A
C1717      C1722   1.414       .  A
C1718      C1719   1.403       .  A
C1718      H1723   1.082       .  S
C1719      C1720   1.408       .  A
C1719      O1724   1.372       .  S
C1720      C1721   1.401       .  A
C1721      C1722   1.394       .  A
C1721      H1725   1.084       .  S
C1722      O1726   1.372       .  S
O1724      H1728   0.992       .  S
O1726      H1727   0.992       .  S
C1729      C1730   1.406       .  A
C1729      C1734   1.408       .  A
C1730      C1731   1.405       .  A
C1730      H1735   1.084       .  S
C1731      C1732   1.414       .  A
C1731      O1736   1.371       .  S
C1732      C1733   1.406       .  A
C1733      C1734   1.394       .  A
C1733      H1737   1.084       .  S
C1734      O1738   1.372       .  S
O1736      H1740   0.992       .  S
O1738      H1739   0.992       .  S
C1741      C1742   1.404       .  A
C1741      C1746   1.408       .  A
C1742      C1743   1.406       .  A
C1742      H1747   1.084       .  S
C1743      C1744   1.416       .  A
C1743      O1748   1.372       .  S
C1744      C1745   1.407       .  A
C1745      C1746   1.394       .  A
C1745      H1749   1.083       .  S
C1746      O1750   1.372       .  S
O1748      H1752   0.992       .  S
O1750      H1751   0.991       .  S
C1753      C1754   1.405       .  A
C1753      C1758   1.414       .  A
C1754      C1755   1.395       .  A
C1754      H1759   1.084       .  S
C1755      C1756   1.412       .  A
C1755      O1760   1.372       .  S
C1756      C1757   1.405       .  A
C1757      C1758   1.406       .  A
C1757      H1761   1.084       .  S
C1758      O1762   1.372       .  S
O1760      H1764   0.992       .  S
O1762      H1763   0.992       .  S
C1765      C1766   1.403       .  A
C1765      C1770   1.409       .  A
C1766      C1767   1.397       .  A
C1766      H1771   1.084       .  S
C1767      C1768   1.415       .  A
C1767      O1772   1.373       .  S
C1768      C1769   1.411       .  A
C1769      C1770   1.404       .  A
C1769      H1773   1.081       .  S
C1770      O1774   1.372       .  S
O1772      H1776   0.992       .  S
O1774      H1775   0.992       .  S
C1777      C1778   1.399       .  A
C1777      C1782   1.409       .  A
C1778      C1779   1.398       .  A
C1778      H1783   1.084       .  S
C1779      C1780   1.417       .  A
C1779      O1784   1.373       .  S
C1780      C1781   1.409       .  A
C1781      C1782   1.403       .  A
C1781      H1785   1.082       .  S
C1782      O1786   1.372       .  S
O1784      H1788   0.992       .  S
O1786      H1787   0.992       .  S
C1789      C1790   1.405       .  A
C1789      C1794   1.410       .  A
C1790      C1791   1.398       .  A
C1790      H1795   1.084       .  S
C1791      C1792   1.413       .  A
C1791      O1796   1.373       .  S
C1792      C1793   1.409       .  A
C1793      C1794   1.404       .  A
C1793      H1797   1.082       .  S
C1794      O1798   1.372       .  S
O1796      H1800   0.992       .  S
O1798      H1799   0.992       .  S
C1801      C1802   1.399       .  A
C1801      C1806   1.408       .  A
C1802      C1803   1.394       .  A
C1802      H1807   1.084       .  S
C1803      C1804   1.407       .  A
C1803      O1808   1.372       .  S
C1804      C1805   1.405       .  A
C1805      C1806   1.405       .  A
C1805      H1809   1.083       .  S
C1806      O1810   1.371       .  S
O1808      H1812   0.992       .  S
O1810      H1811   0.992       .  S
C1813      C1814   1.409       .  A
C1813      C1818   1.413       .  A
C1814      C1815   1.403       .  A
C1814      H1819   1.082       .  S
C1815      C1816   1.408       .  A
C1815      O1820   1.372       .  S
C1816      C1817   1.401       .  A
C1817      C1818   1.396       .  A
C1817      H1821   1.084       .  S
C1818      O1822   1.372       .  S
O1820      H1824   0.992       .  S
O1822      H1823   0.992       .  S
C1825      C1826   1.404       .  A
C1825      C1830   1.412       .  A
C1826      C1827   1.395       .  A
C1826      H1831   1.084       .  S
C1827      C1828   1.410       .  A
C1827      O1832   1.372       .  S
C1828      C1829   1.405       .  A
C1829      C1830   1.404       .  A
C1829      H1833   1.084       .  S
C1830      O1834   1.371       .  S
O1832      H1836   0.992       .  S
O1834      H1835   0.991       .  S
C1837      C1838   1.403       .  A
C1837      C1842   1.404       .  A
C1838      C1839   1.404       .  A
C1838      H1843   1.083       .  S
C1839      C1840   1.406       .  A
C1839      O1844   1.371       .  S
C1840      C1841   1.399       .  A
C1841      C1842   1.393       .  A
C1841      H1845   1.084       .  S
C1842      O1846   1.372       .  S
O1844      H1848   0.992       .  S
O1846      H1847   0.992       .  S
C1849      C1850   1.345       .  D
C1849      C1906   1.492       .  S
C1849      C1937   1.494       .  S
C1850      C1995   1.496       .  S
C1850      C2006   1.494       .  S
C1851      C1852   1.347       .  D
C1852      C1908   1.504       .  S
C1852      C1939   1.501       .  S
C1853      C1854   1.346       .  D
C1853      C1879   1.499       .  S
C1853      C1886   1.497       .  S
C1854      C1857   1.495       .  S
C1854      C1866   1.498       .  S
C1855      C1856   1.407       .  A
C1855      C1860   1.409       .  A
C1855      C2148   1.466       .  S
C1856      C1857   1.401       .  A
C1856      H1861   1.083       .  S
C1857      C1858   1.403       .  A
C1858      C1859   1.404       .  A
C1858      H1862   1.083       .  S
C1859      C1860   1.404       .  A
C1860      H1863   1.083       .  S
C1864      C1865   1.415       .  A
C1864      C1869   1.415       .  A
C1864      C2133   1.486       .  S
C1865      C1866   1.403       .  A
C1865      H1870   1.083       .  S
C1866      C1867   1.402       .  A
C1867      C1868   1.403       .  A
C1867      H1871   1.083       .  S
C1868      C1869   1.403       .  A
C1869      H1872   1.081       .  S
C1873      C1874   1.346       .  D
C1874      C1997   1.500       .  S
C1874      C2004   1.499       .  S
C1875      C1876   1.415       .  A
C1875      C1880   1.416       .  A
C1875      C2121   1.489       .  S
C1876      C1877   1.403       .  A
C1876      H1881   1.083       .  S
C1877      C1893   1.498       .  S
C1877      C1878   1.402       .  A
C1878      H1882   1.083       .  S
C1884      C1885   1.410       .  A
C1884      C1889   1.411       .  A
C1884      C2112   1.473       .  S
C1887      C1888   1.403       .  A
C1887      H1891   1.083       .  S
C1888      C1893   1.499       .  S
C1888      C1889   1.403       .  A
C1889      H1892   1.083       .  S
C1893      C1894   1.346       .  D
C1894      C1899   1.498       .  S
C1894      C1946   1.498       .  S
C1895      C1896   1.417       .  A
C1895      C1900   1.416       .  A
C1895      C2100   1.494       .  S
C1897      C2012   1.499       .  S
C1898      C1899   1.402       .  A
C1898      H1902   1.083       .  S
C1899      C1900   1.405       .  A
C1900      H1903   1.083       .  S
C1904      C1905   1.414       .  A
C1904      C1909   1.421       .  A
C1904      C2088   1.496       .  S
C1905      C1906   1.401       .  A
C1905      H1910   1.083       .  S
C1906      C1907   1.402       .  A
C1907      C1908   1.402       .  A
C1907      H1911   1.083       .  S
C1908      C1909   1.407       .  A
C1909      H1912   1.081       .  S
Fe1913     O1929   2.072   1_556  S
Fe1913     O1919   2.060   1_556  S
Fe1913     O2234   2.063       .  S
Fe1913     O2226   2.061       .  S
Fe1913     O2232   1.975       .  S
Fe1914     O2225   2.069       .  S
Fe1914     O2229   2.057       .  S
Fe1914     O1925   2.067       .  S
Fe1914     O1930   2.063       .  S
Fe1914     O1924   1.972       .  S
Fe1915     O2241   2.058       .  S
Fe1915     O1920   2.072       .  S
Fe1915     O2235   2.071       .  S
Fe1915     O1916   2.059       .  S
Fe1915     O1924   1.975       .  S
O1916      C1923   1.266       .  A
O1917     Fe2222   2.069       .  S
O1917      C1931   1.269       .  A
O1918     Fe2221   2.061       .  S
O1918      C1923   1.266       .  A
O1919      C1922   1.269       .  A
O1920      C1932   1.271       .  A
O1921     Fe2222   2.057       .  S
O1921      C1934   1.268       .  A
C1922      C2136   1.480       .  S
C1922      O1927   1.271       .  A
C1923      C2145   1.462       .  S
O1924     Fe2221   1.975       .  S
O1925      C1928   1.270       .  A
O1926     Fe2221   2.063       .  S
O1926      C1928   1.268       .  A
O1927     Fe2223   2.071   1_554  S
C1928      C2085   1.479       .  S
O1929      C1934   1.270       .  A
O1930      C1932   1.270       .  A
C1931      C2064   1.485       .  S
C1931      O1933   1.267       .  A
C1932      C2097   1.487       .  S
O1933     Fe2223   2.058   1_554  S
C1934      C2073   1.484       .  S
C1935      C1936   1.416       .  A
C1935      C1940   1.419       .  A
C1935      C2076   1.498       .  S
C1936      C1937   1.404       .  A
C1936      H1941   1.083       .  S
C1937      C1938   1.401       .  A
C1938      C1939   1.401       .  A
C1938      H1942   1.083       .  S
C1939      C1940   1.404       .  A
C1940      H1943   1.081       .  S
C1944      C1945   1.416       .  A
C1944      C1949   1.415       .  A
C1944      C2061   1.491       .  S
C1945      C1946   1.403       .  A
C1945      H1950   1.079       .  S
C1946      C1947   1.402       .  A
C1947      C1948   1.402       .  A
C1947      H1951   1.083       .  S
C1948      C1949   1.403       .  A
C1949      H1952   1.083       .  S
C1953      C1954   1.416       .  A
C1953      C1958   1.418       .  A
C1953      C2052   1.496       .  S
C1954      C1955   1.402       .  A
C1954      H1959   1.083       .  S
C1955      C1956   1.402       .  A
C1956      C1957   1.402       .  A
C1956      H1960   1.083       .  S
C1957      C2011   1.500       .  S
C1957      C1958   1.404       .  A
C1958      H1961   1.078       .  S
C1962      C1963   1.414       .  A
C1962      C1967   1.418       .  A
C1962      C2040   1.491       .  S
C1963      C1964   1.401       .  A
C1963      H1968   1.084       .  S
C1964      C1965   1.402       .  A
C1965      C1966   1.402       .  A
C1965      H1969   1.083       .  S
C1966      C2011   1.502       .  S
C1966      C1967   1.407       .  A
C1967      H1970   1.080       .  S
Fe1971     O1987   2.055       .  S
Fe1971     O1977   2.071       .  S
Fe1971     O2292   2.060       .  S
Fe1971     O2284   2.067       .  S
Fe1971     O2290   1.977       .  S
Fe1972     O2283   2.071   1_554  S
Fe1972     O2287   2.073   1_554  S
Fe1972     O1983   2.071       .  S
Fe1972     O1988   2.071       .  S
Fe1972     O1982   1.982       .  S
Fe1973     O2299   2.056   1_554  S
Fe1973     O1978   2.052       .  S
Fe1973     O2293   2.055   1_554  S
Fe1973     O1974   2.059       .  S
Fe1973     O1982   1.979       .  S
O1974      C1981   1.266       .  A
O1975     Fe2280   2.071       .  S
O1975      C1989   1.269       .  A
O1976     Fe2279   2.067       .  S
O1976      C1981   1.267       .  A
O1977      C1980   1.269       .  A
O1978      C1990   1.268       .  A
O1979     Fe2280   2.073       .  S
O1979      C1992   1.270       .  A
C1980      C2124   1.476       .  S
C1980      O1985   1.267       .  A
C1981      C2109   1.467       .  S
O1982     Fe2279   1.977       .  S
O1983      C1986   1.269       .  A
O1984     Fe2279   2.060       .  S
O1984      C1986   1.268       .  A
O1985     Fe2281   2.055       .  S
C1986      C2037   1.480       .  S
O1987      C1992   1.267       .  A
O1988      C1990   1.270       .  A
C1989      C2016   1.478       .  S
C1989      O1991   1.267       .  A
C1990      C2028   1.475       .  S
O1991     Fe2281   2.056       .  S
C1992      C2049   1.481       .  S
C1993      C1994   1.415       .  A
C1993      C1998   1.416       .  A
C1993      C2013   1.488       .  S
C1994      C1995   1.403       .  A
C1994      H1999   1.084       .  S
C1995      C1996   1.401       .  A
C1996      C1997   1.402       .  A
C1996      H2000   1.083       .  S
C1997      C1998   1.404       .  A
C1998      H2001   1.081       .  S
C2002      C2003   1.416       .  A
C2002      C2007   1.414       .  A
C2002      C2025   1.490       .  S
C2003      C2004   1.404       .  A
C2003      H2008   1.081       .  S
C2004      C2005   1.402       .  A
C2005      C2006   1.402       .  A
C2005      H2009   1.083       .  S
C2006      C2007   1.402       .  A
C2007      H2010   1.083       .  S
C2011      C2012   1.347       .  D
C2013      C2014   1.405       .  A
C2013      C2018   1.414       .  A
C2014      C2015   1.395       .  A
C2014      H2019   1.084       .  S
C2015      C2016   1.409       .  A
C2015      O2020   1.372       .  S
C2016      C2017   1.404       .  A
C2017      C2018   1.404       .  A
C2017      H2021   1.084       .  S
C2018      O2022   1.371       .  S
O2020      H2024   0.992       .  S
O2022      H2023   0.992       .  S
C2025      C2026   1.409       .  A
C2025      C2030   1.414       .  A
C2026      C2027   1.403       .  A
C2026      H2031   1.082       .  S
C2027      C2028   1.408       .  A
C2027      O2032   1.372       .  S
C2028      C2029   1.401       .  A
C2029      C2030   1.394       .  A
C2029      H2033   1.084       .  S
C2030      O2034   1.372       .  S
O2032      H2036   0.992       .  S
O2034      H2035   0.992       .  S
C2037      C2038   1.406       .  A
C2037      C2042   1.408       .  A
C2038      C2039   1.405       .  A
C2038      H2043   1.084       .  S
C2039      C2040   1.414       .  A
C2039      O2044   1.371       .  S
C2040      C2041   1.406       .  A
C2041      C2042   1.394       .  A
C2041      H2045   1.084       .  S
C2042      O2046   1.372       .  S
O2044      H2048   0.992       .  S
O2046      H2047   0.992       .  S
C2049      C2050   1.404       .  A
C2049      C2054   1.408       .  A
C2050      C2051   1.406       .  A
C2050      H2055   1.084       .  S
C2051      C2052   1.416       .  A
C2051      O2056   1.372       .  S
C2052      C2053   1.407       .  A
C2053      C2054   1.394       .  A
C2053      H2057   1.083       .  S
C2054      O2058   1.372       .  S
O2056      H2060   0.992       .  S
O2058      H2059   0.991       .  S
C2061      C2062   1.405       .  A
C2061      C2066   1.414       .  A
C2062      C2063   1.395       .  A
C2062      H2067   1.084       .  S
C2063      C2064   1.412       .  A
C2063      O2068   1.372       .  S
C2064      C2065   1.405       .  A
C2065      C2066   1.406       .  A
C2065      H2069   1.084       .  S
C2066      O2070   1.372       .  S
O2068      H2072   0.992       .  S
O2070      H2071   0.992       .  S
C2073      C2074   1.403       .  A
C2073      C2078   1.409       .  A
C2074      C2075   1.397       .  A
C2074      H2079   1.084       .  S
C2075      C2076   1.415       .  A
C2075      O2080   1.373       .  S
C2076      C2077   1.411       .  A
C2077      C2078   1.404       .  A
C2077      H2081   1.081       .  S
C2078      O2082   1.372       .  S
O2080      H2084   0.992       .  S
O2082      H2083   0.992       .  S
C2085      C2086   1.399       .  A
C2085      C2090   1.409       .  A
C2086      C2087   1.398       .  A
C2086      H2091   1.084       .  S
C2087      C2088   1.417       .  A
C2087      O2092   1.373       .  S
C2088      C2089   1.409       .  A
C2089      C2090   1.403       .  A
C2089      H2093   1.082       .  S
C2090      O2094   1.372       .  S
O2092      H2096   0.992       .  S
O2094      H2095   0.992       .  S
C2097      C2098   1.405       .  A
C2097      C2102   1.410       .  A
C2098      C2099   1.398       .  A
C2098      H2103   1.084       .  S
C2099      C2100   1.413       .  A
C2099      O2104   1.373       .  S
C2100      C2101   1.409       .  A
C2101      C2102   1.404       .  A
C2101      H2105   1.082       .  S
C2102      O2106   1.372       .  S
O2104      H2108   0.992       .  S
O2106      H2107   0.992       .  S
C2109      C2110   1.399       .  A
C2109      C2114   1.408       .  A
C2110      C2111   1.394       .  A
C2110      H2115   1.084       .  S
C2111      C2112   1.407       .  A
C2111      O2116   1.372       .  S
C2112      C2113   1.405       .  A
C2113      C2114   1.405       .  A
C2113      H2117   1.083       .  S
C2114      O2118   1.371       .  S
O2116      H2120   0.992       .  S
O2118      H2119   0.992       .  S
C2121      C2122   1.409       .  A
C2121      C2126   1.413       .  A
C2122      C2123   1.403       .  A
C2122      H2127   1.082       .  S
C2123      C2124   1.408       .  A
C2123      O2128   1.372       .  S
C2124      C2125   1.401       .  A
C2125      C2126   1.396       .  A
C2125      H2129   1.084       .  S
C2126      O2130   1.372       .  S
O2128      H2132   0.992       .  S
O2130      H2131   0.992       .  S
C2133      C2134   1.404       .  A
C2133      C2138   1.412       .  A
C2134      C2135   1.395       .  A
C2134      H2139   1.084       .  S
C2135      C2136   1.410       .  A
C2135      O2140   1.372       .  S
C2136      C2137   1.405       .  A
C2137      C2138   1.404       .  A
C2137      H2141   1.084       .  S
C2138      O2142   1.371       .  S
O2140      H2144   0.992       .  S
O2142      H2143   0.991       .  S
C2145      C2146   1.403       .  A
C2145      C2150   1.404       .  A
C2146      C2147   1.404       .  A
C2146      H2151   1.083       .  S
C2147      C2148   1.406       .  A
C2147      O2152   1.371       .  S
C2148      C2149   1.399       .  A
C2149      C2150   1.393       .  A
C2149      H2153   1.084       .  S
C2150      O2154   1.372       .  S
O2152      H2156   0.992       .  S
O2154      H2155   0.992       .  S
C2157      C2158   1.345       .  D
C2157      C2214   1.492       .  S
C2157      C2245   1.494       .  S
C2158      C2303   1.496       .  S
C2158      C2314   1.494       .  S
C2159      C2160   1.347       .  D
C2160      C2216   1.504       .  S
C2160      C2247   1.501       .  S
C2161      C2162   1.346       .  D
C2161      C2187   1.499       .  S
C2161      C2194   1.497       .  S
C2162      C2165   1.495       .  S
C2162      C2174   1.498       .  S
C2163      C2164   1.407       .  A
C2163      C2168   1.409       .  A
C2163      C2456   1.466       .  S
C2164      C2165   1.401       .  A
C2164      H2169   1.083       .  S
C2165      C2166   1.403       .  A
C2166      C2167   1.404       .  A
C2166      H2170   1.083       .  S
C2167      C2168   1.404       .  A
C2168      H2171   1.083       .  S
C2172      C2173   1.415       .  A
C2172      C2177   1.415       .  A
C2172      C2441   1.486       .  S
C2173      C2174   1.403       .  A
C2173      H2178   1.083       .  S
C2174      C2175   1.402       .  A
C2175      C2176   1.403       .  A
C2175      H2179   1.083       .  S
C2176      C2177   1.403       .  A
C2177      H2180   1.081       .  S
C2181      C2182   1.346       .  D
C2182      C2305   1.500       .  S
C2182      C2312   1.499       .  S
C2183      C2184   1.415       .  A
C2183      C2188   1.416       .  A
C2183      C2429   1.489       .  S
C2184      C2185   1.403       .  A
C2184      H2189   1.083       .  S
C2185      C2201   1.498       .  S
C2185      C2186   1.402       .  A
C2186      H2190   1.083       .  S
C2192      C2193   1.410       .  A
C2192      C2197   1.411       .  A
C2192      C2420   1.473       .  S
C2195      C2196   1.403       .  A
C2195      H2199   1.083       .  S
C2196      C2201   1.499       .  S
C2196      C2197   1.403       .  A
C2197      H2200   1.083       .  S
C2201      C2202   1.346       .  D
C2202      C2207   1.498       .  S
C2202      C2254   1.498       .  S
C2203      C2204   1.417       .  A
C2203      C2208   1.416       .  A
C2203      C2408   1.494       .  S
C2205      C2320   1.499       .  S
C2206      C2207   1.402       .  A
C2206      H2210   1.083       .  S
C2207      C2208   1.405       .  A
C2208      H2211   1.083       .  S
C2212      C2213   1.414       .  A
C2212      C2217   1.421       .  A
C2212      C2396   1.496       .  S
C2213      C2214   1.401       .  A
C2213      H2218   1.083       .  S
C2214      C2215   1.402       .  A
C2215      C2216   1.402       .  A
C2215      H2219   1.083       .  S
C2216      C2217   1.407       .  A
C2217      H2220   1.081       .  S
Fe2221     O2237   2.072       .  S
Fe2221     O2227   2.060       .  S
Fe2222     O2233   2.067   1_554  S
Fe2222     O2238   2.063   1_554  S
Fe2222     O2232   1.972   1_554  S
Fe2223     O2228   2.072       .  S
Fe2223     O2224   2.059       .  S
Fe2223     O2232   1.975       .  S
O2224      C2231   1.266       .  A
O2225      C2239   1.269       .  A
O2226      C2231   1.266       .  A
O2227      C2230   1.269       .  A
O2228      C2240   1.271       .  A
O2229      C2242   1.268       .  A
C2230      C2444   1.480       .  S
C2230      O2235   1.271       .  A
C2231      C2453   1.462       .  S
O2233      C2236   1.270       .  A
O2234      C2236   1.268       .  A
C2236      C2393   1.479       .  S
O2237      C2242   1.270       .  A
O2238      C2240   1.270       .  A
C2239      C2372   1.485       .  S
C2239      O2241   1.267       .  A
C2240      C2405   1.487       .  S
C2242      C2381   1.484       .  S
C2243      C2244   1.416       .  A
C2243      C2248   1.419       .  A
C2243      C2384   1.498       .  S
C2244      C2245   1.404       .  A
C2244      H2249   1.083       .  S
C2245      C2246   1.401       .  A
C2246      C2247   1.401       .  A
C2246      H2250   1.083       .  S
C2247      C2248   1.404       .  A
C2248      H2251   1.081       .  S
C2252      C2253   1.416       .  A
C2252      C2257   1.415       .  A
C2252      C2369   1.491       .  S
C2253      C2254   1.403       .  A
C2253      H2258   1.079       .  S
C2254      C2255   1.402       .  A
C2255      C2256   1.402       .  A
C2255      H2259   1.083       .  S
C2256      C2257   1.403       .  A
C2257      H2260   1.083       .  S
C2261      C2262   1.416       .  A
C2261      C2266   1.418       .  A
C2261      C2360   1.496       .  S
C2262      C2263   1.402       .  A
C2262      H2267   1.083       .  S
C2263      C2264   1.402       .  A
C2264      C2265   1.402       .  A
C2264      H2268   1.083       .  S
C2265      C2319   1.500       .  S
C2265      C2266   1.404       .  A
C2266      H2269   1.078       .  S
C2270      C2271   1.414       .  A
C2270      C2275   1.418       .  A
C2270      C2348   1.491       .  S
C2271      C2272   1.401       .  A
C2271      H2276   1.084       .  S
C2272      C2273   1.402       .  A
C2273      C2274   1.402       .  A
C2273      H2277   1.083       .  S
C2274      C2319   1.502       .  S
C2274      C2275   1.407       .  A
C2275      H2278   1.080       .  S
Fe2279     O2295   2.055   1_554  S
Fe2279     O2285   2.071   1_554  S
Fe2280     O2291   2.071       .  S
Fe2280     O2296   2.071       .  S
Fe2280     O2290   1.982       .  S
Fe2281     O2286   2.052       .  S
Fe2281     O2282   2.059       .  S
Fe2281     O2290   1.979       .  S
O2282      C2289   1.266       .  A
O2283      C2297   1.269       .  A
O2284      C2289   1.267       .  A
O2285      C2288   1.269       .  A
O2286      C2298   1.268       .  A
O2287      C2300   1.270       .  A
C2288      C2432   1.476       .  S
C2288      O2293   1.267       .  A
C2289      C2417   1.467       .  S
O2291      C2294   1.269       .  A
O2292      C2294   1.268       .  A
C2294      C2345   1.480       .  S
O2295      C2300   1.267       .  A
O2296      C2298   1.270       .  A
C2297      C2324   1.478       .  S
C2297      O2299   1.267       .  A
C2298      C2336   1.475       .  S
C2300      C2357   1.481       .  S
C2301      C2302   1.415       .  A
C2301      C2306   1.416       .  A
C2301      C2321   1.488       .  S
C2302      C2303   1.403       .  A
C2302      H2307   1.084       .  S
C2303      C2304   1.401       .  A
C2304      C2305   1.402       .  A
C2304      H2308   1.083       .  S
C2305      C2306   1.404       .  A
C2306      H2309   1.081       .  S
C2310      C2311   1.416       .  A
C2310      C2315   1.414       .  A
C2310      C2333   1.490       .  S
C2311      C2312   1.404       .  A
C2311      H2316   1.081       .  S
C2312      C2313   1.402       .  A
C2313      C2314   1.402       .  A
C2313      H2317   1.083       .  S
C2314      C2315   1.402       .  A
C2315      H2318   1.083       .  S
C2319      C2320   1.347       .  D
C2321      C2322   1.405       .  A
C2321      C2326   1.414       .  A
C2322      C2323   1.395       .  A
C2322      H2327   1.084       .  S
C2323      C2324   1.409       .  A
C2323      O2328   1.372       .  S
C2324      C2325   1.404       .  A
C2325      C2326   1.404       .  A
C2325      H2329   1.084       .  S
C2326      O2330   1.371       .  S
O2328      H2332   0.992       .  S
O2330      H2331   0.992       .  S
C2333      C2334   1.409       .  A
C2333      C2338   1.414       .  A
C2334      C2335   1.403       .  A
C2334      H2339   1.082       .  S
C2335      C2336   1.408       .  A
C2335      O2340   1.372       .  S
C2336      C2337   1.401       .  A
C2337      C2338   1.394       .  A
C2337      H2341   1.084       .  S
C2338      O2342   1.372       .  S
O2340      H2344   0.992       .  S
O2342      H2343   0.992       .  S
C2345      C2346   1.406       .  A
C2345      C2350   1.408       .  A
C2346      C2347   1.405       .  A
C2346      H2351   1.084       .  S
C2347      C2348   1.414       .  A
C2347      O2352   1.371       .  S
C2348      C2349   1.406       .  A
C2349      C2350   1.394       .  A
C2349      H2353   1.084       .  S
C2350      O2354   1.372       .  S
O2352      H2356   0.992       .  S
O2354      H2355   0.992       .  S
C2357      C2358   1.404       .  A
C2357      C2362   1.408       .  A
C2358      C2359   1.406       .  A
C2358      H2363   1.084       .  S
C2359      C2360   1.416       .  A
C2359      O2364   1.372       .  S
C2360      C2361   1.407       .  A
C2361      C2362   1.394       .  A
C2361      H2365   1.083       .  S
C2362      O2366   1.372       .  S
O2364      H2368   0.992       .  S
O2366      H2367   0.991       .  S
C2369      C2370   1.405       .  A
C2369      C2374   1.414       .  A
C2370      C2371   1.395       .  A
C2370      H2375   1.084       .  S
C2371      C2372   1.412       .  A
C2371      O2376   1.372       .  S
C2372      C2373   1.405       .  A
C2373      C2374   1.406       .  A
C2373      H2377   1.084       .  S
C2374      O2378   1.372       .  S
O2376      H2380   0.992       .  S
O2378      H2379   0.992       .  S
C2381      C2382   1.403       .  A
C2381      C2386   1.409       .  A
C2382      C2383   1.397       .  A
C2382      H2387   1.084       .  S
C2383      C2384   1.415       .  A
C2383      O2388   1.373       .  S
C2384      C2385   1.411       .  A
C2385      C2386   1.404       .  A
C2385      H2389   1.081       .  S
C2386      O2390   1.372       .  S
O2388      H2392   0.992       .  S
O2390      H2391   0.992       .  S
C2393      C2394   1.399       .  A
C2393      C2398   1.409       .  A
C2394      C2395   1.398       .  A
C2394      H2399   1.084       .  S
C2395      C2396   1.417       .  A
C2395      O2400   1.373       .  S
C2396      C2397   1.409       .  A
C2397      C2398   1.403       .  A
C2397      H2401   1.082       .  S
C2398      O2402   1.372       .  S
O2400      H2404   0.992       .  S
O2402      H2403   0.992       .  S
C2405      C2406   1.405       .  A
C2405      C2410   1.410       .  A
C2406      C2407   1.398       .  A
C2406      H2411   1.084       .  S
C2407      C2408   1.413       .  A
C2407      O2412   1.373       .  S
C2408      C2409   1.409       .  A
C2409      C2410   1.404       .  A
C2409      H2413   1.082       .  S
C2410      O2414   1.372       .  S
O2412      H2416   0.992       .  S
O2414      H2415   0.992       .  S
C2417      C2418   1.399       .  A
C2417      C2422   1.408       .  A
C2418      C2419   1.394       .  A
C2418      H2423   1.084       .  S
C2419      C2420   1.407       .  A
C2419      O2424   1.372       .  S
C2420      C2421   1.405       .  A
C2421      C2422   1.405       .  A
C2421      H2425   1.083       .  S
C2422      O2426   1.371       .  S
O2424      H2428   0.992       .  S
O2426      H2427   0.992       .  S
C2429      C2430   1.409       .  A
C2429      C2434   1.413       .  A
C2430      C2431   1.403       .  A
C2430      H2435   1.082       .  S
C2431      C2432   1.408       .  A
C2431      O2436   1.372       .  S
C2432      C2433   1.401       .  A
C2433      C2434   1.396       .  A
C2433      H2437   1.084       .  S
C2434      O2438   1.372       .  S
O2436      H2440   0.992       .  S
O2438      H2439   0.992       .  S
C2441      C2442   1.404       .  A
C2441      C2446   1.412       .  A
C2442      C2443   1.395       .  A
C2442      H2447   1.084       .  S
C2443      C2444   1.410       .  A
C2443      O2448   1.372       .  S
C2444      C2445   1.405       .  A
C2445      C2446   1.404       .  A
C2445      H2449   1.084       .  S
C2446      O2450   1.371       .  S
O2448      H2452   0.992       .  S
O2450      H2451   0.991       .  S
C2453      C2454   1.403       .  A
C2453      C2458   1.404       .  A
C2454      C2455   1.404       .  A
C2454      H2459   1.083       .  S
C2455      C2456   1.406       .  A
C2455      O2460   1.371       .  S
C2456      C2457   1.399       .  A
C2457      C2458   1.393       .  A
C2457      H2461   1.084       .  S
C2458      O2462   1.372       .  S
O2460      H2464   0.992       .  S
O2462      H2463   0.992       .  S
