geometry optimzed in LAMMPS
_audit_creation_date              2020-11-30 
_audit_creation_method            'lammps2cif' 
_symmetry_space_group_name_H-M    'P1' 
_symmetry_Int_Tables_number       1 
_symmetry_cell_setting            triclinic 
loop_ 
_symmetry_equiv_pos_as_xyz 
  x,y,z 
_cell_length_a                    48.1159326 
_cell_length_b                    38.52519757079143 
_cell_length_c                    43.78739456958516 
_cell_angle_alpha                 90.00170633454252 
_cell_angle_beta                  90.00015835459737 
_cell_angle_gamma                 90.00036725625527 
loop_ 
_atom_site_label 
_atom_site_type_symbol 
_atom_site_fract_x 
_atom_site_fract_y 
_atom_site_fract_z 
_atom_site_charge 
Fe1        Fe  0.10172782  0.91067147  0.36997088     1.65800
Fe2        Fe  0.07665106  0.90119722  0.44146874     1.73200
Fe3        Fe  0.11435800  0.97319959  0.42276678     1.54400
O4          O  0.15212297  0.95797525  0.40215528    -0.80100
O5          O  0.05258274  0.94252031  0.45304890    -0.78400
O6          O  0.14383922  0.90926834  0.37508023    -0.82600
O7          O  0.10469265  0.95856655  0.34838829    -0.77500
O8          O  0.12989478  0.95574759  0.46345347    -0.79200
O9          O  0.04620832  0.88904013  0.40885007    -0.82000
C10         C  0.10215407  0.98992447  0.35646581     0.98800
C11         C  0.16019625  0.93149873  0.38674001     1.06200
O12         O  0.09777309  0.92857440  0.41171990    -1.11000
O13         O  0.09900754  0.85667749  0.43293842    -0.73400
O14         O  0.09976700  0.85848951  0.38235384    -0.76900
O15         O  0.10113262  0.99886901  0.38413592    -0.77600
C16         C  0.10190267  0.84204719  0.40730980     0.97700
O17         O  0.05964232  0.91280606  0.36457001    -0.75500
O18         O  0.10296839  0.91180535  0.47830204    -0.80700
C19         C  0.05596502  0.97501284  0.45420400     1.00300
C20         C  0.12191776  0.93411347  0.48324666     1.06200
O21         O  0.07780813  0.99048101  0.44458324    -0.76400
C22         C  0.04107014  0.90092749  0.38222237     1.04500
Fe23       Fe  0.10149403  0.60041390  0.36606733     1.65800
Fe24       Fe  0.07605975  0.60969220  0.43755188     1.73200
Fe25       Fe  0.11430379  0.53802284  0.41909724     1.54400
O26         O  0.10133486  0.51200453  0.38053631    -0.80100
O27         O  0.10198818  0.59887138  0.47465936    -0.78400
O28         O  0.10396038  0.55230174  0.34461912    -0.82600
O29         O  0.14369974  0.60130532  0.37077890    -0.77500
O30         O  0.07781199  0.52065810  0.44100800    -0.79200
O31         O  0.09846996  0.65414161  0.42939908    -0.82000
C32         C  0.16007242  0.57915815  0.38252886     0.98800
C33         C  0.10198810  0.52089004  0.35282344     1.06200
O34         O  0.09748276  0.58250193  0.40784061    -1.11000
O35         O  0.04582111  0.62232585  0.40492469    -0.73400
O36         O  0.05936041  0.59886926  0.36060540    -0.76900
O37         O  0.15202350  0.55305562  0.39840271    -0.77600
C38         C  0.04076166  0.61077094  0.37819621     0.97700
O39         O  0.10008127  0.65267064  0.37876940    -0.75500
O40         O  0.05193823  0.56826856  0.44863595    -0.80700
C41         C  0.12125497  0.57701096  0.47961921     1.00300
C42         C  0.05568842  0.53585971  0.45018163     1.06200
O43         O  0.12980238  0.55588936  0.45968655    -0.76400
C44         C  0.10184664  0.66891319  0.40390927     1.04500
Fe45       Fe  0.35163181  0.91030078  0.35807483     1.65800
Fe46       Fe  0.32611391  0.90108318  0.28656634     1.73200
Fe47       Fe  0.36428200  0.97283096  0.30505715     1.54400
O48         O  0.35145210  0.99872942  0.34372197    -0.80100
O49         O  0.35216374  0.91173317  0.24951170    -0.78400
O50         O  0.35398791  0.95836768  0.37958764    -0.82600
O51         O  0.39383124  0.90957764  0.35328641    -0.77500
O52         O  0.32774160  0.99025913  0.28336054    -0.79200
O53         O  0.34836965  0.85649833  0.29478999    -0.82000
C54         C  0.41016178  0.93169882  0.34142895     0.98800
C55         C  0.35203607  0.98978799  0.37141773     1.06200
O56         O  0.34753208  0.92827175  0.31629974    -1.11000
O57         O  0.29579303  0.88867400  0.31917377    -0.73400
O58         O  0.30950557  0.91163823  0.36364507    -0.76900
O59         O  0.40206976  0.95775998  0.32553596    -0.77600
C60         C  0.29084629  0.89992244  0.34603247     0.97700
O61         O  0.35034149  0.85804798  0.34539766    -0.75500
O62         O  0.30208963  0.94256346  0.27530132    -0.80700
C63         C  0.37123779  0.93383553  0.24445873     1.00300
C64         C  0.30572955  0.97500585  0.27396104     1.06200
O65         O  0.37960132  0.95517909  0.26430664    -0.76400
C66         C  0.35193770  0.84176912  0.32026901     1.04500
Fe67       Fe  0.35164745  0.59996772  0.35432208     1.65800
Fe68       Fe  0.32668843  0.60969945  0.28287028     1.73200
Fe69       Fe  0.36421735  0.53755987  0.30146103     1.54400
O70         O  0.40194119  0.55246075  0.32236772    -0.80100
O71         O  0.30232595  0.56857555  0.27149554    -0.78400
O72         O  0.39375545  0.60130120  0.34928667    -0.82600
O73         O  0.35455610  0.55197318  0.37577914    -0.77500
O74         O  0.38005411  0.55515891  0.26096429    -0.79200
O75         O  0.29640170  0.62229001  0.31554819    -0.82000
C76         C  0.35182732  0.52066288  0.36761477     0.98800
C77         C  0.41006633  0.57893504  0.33775607     1.06200
O78         O  0.34772488  0.58218607  0.31256015    -1.11000
O79         O  0.34941730  0.65395208  0.29134689    -0.73400
O80         O  0.34976751  0.65219696  0.34194563    -0.76900
O81         O  0.35066500  0.51184015  0.33992082    -0.77600
C82         C  0.35216929  0.66860956  0.31699065     0.97700
O83         O  0.30954845  0.59784281  0.35962010    -0.75500
O84         O  0.35279029  0.59868654  0.24592609    -0.80700
C85         C  0.30576882  0.53610583  0.27003013     1.00300
C86         C  0.37186927  0.57652768  0.24105178     1.06200
O87         O  0.32770304  0.52059594  0.27935596    -0.76400
C88         C  0.29108523  0.61005217  0.34200823     1.04500
Fe89       Fe  0.39767262  0.41065946  0.10410077     1.65800
Fe90       Fe  0.42273549  0.40118765  0.03259411     1.73200
Fe91       Fe  0.38503712  0.47319362  0.05131397     1.54400
O92         O  0.34727316  0.45796510  0.07192291    -0.80100
O93         O  0.44679791  0.44251270  0.02100423    -0.78400
O94         O  0.35556013  0.40926179  0.09899974    -0.82600
O95         O  0.39471518  0.45855137  0.12569133    -0.77500
O96         O  0.36950034  0.45575133  0.01062276    -0.79200
O97         O  0.45318889  0.38903872  0.06520244    -0.82000
C98         C  0.39724732  0.48991088  0.11761846     0.98800
C99         C  0.33920195  0.43148973  0.08733961     1.06200
O100        O  0.40162092  0.42856489  0.06235196    -1.11000
O101        O  0.40038638  0.35666267  0.04113003    -0.73400
O102        O  0.39962643  0.35847863  0.09171443    -0.76900
O103        O  0.39826130  0.49885941  0.08994943    -0.77600
C104        C  0.39749068  0.34203458  0.06675885     0.97700
O105        O  0.43975958  0.41278888  0.10949256    -0.75500
O106        O  0.39640580  0.41178992  0.49577052    -0.80700
C107        C  0.44342241  0.47500687  0.01986388     1.00300
C108        C  0.37746429  0.43410888  0.49082911     1.06200
O109        O  0.42158652  0.49047783  0.02950080    -0.76400
C110        C  0.45833006  0.40091951  0.09183252     1.04500
Fe111      Fe  0.39789207  0.10040283  0.10802556     1.65800
Fe112      Fe  0.42334144  0.10968833  0.03655316     1.73200
Fe113      Fe  0.38508526  0.03802624  0.05498243     1.54400
O114        O  0.39806845  0.01199886  0.09353148    -0.80100
O115        O  0.39743152  0.09885364  0.49943128    -0.78400
O116        O  0.39541121  0.05228382  0.12945948    -0.82600
O117        O  0.35568831  0.10130908  0.10330288    -0.77500
O118        O  0.42157138  0.02067003  0.03305126    -0.79200
O119        O  0.40091753  0.15412802  0.04469932    -0.82000
C120        C  0.33931726  0.07915508  0.09155926     0.98800
C121        C  0.39739898  0.02087542  0.12124688     1.06200
O122        O  0.40190953  0.08249758  0.06625167    -1.11000
O123        O  0.45356454  0.12233504  0.06919534    -0.73400
O124        O  0.44002357  0.09884281  0.11349722    -0.76900
O125        O  0.34736884  0.05304721  0.07569273    -0.77600
C126        C  0.45862315  0.11076048  0.09591675     0.97700
O127        O  0.39931858  0.15266201  0.09532988    -0.75500
O128        O  0.44747290  0.06826948  0.02548356    -0.80700
C129        C  0.37814783  0.07701564  0.49447065     1.00300
C130        C  0.44370722  0.03586535  0.02390456     1.06200
O131        O  0.36957512  0.05591640  0.51440761    -0.76400
C132        C  0.39754643  0.16890239  0.07018975     1.04500
Fe133      Fe  0.14777202  0.41029186  0.11599383     1.65800
Fe134      Fe  0.17328376  0.40107900  0.18750363     1.73200
Fe135      Fe  0.13511710  0.47282319  0.16900997     1.54400
O136        O  0.14796305  0.49871950  0.13035238    -0.80100
O137        O  0.14723698  0.41174436  0.22455909    -0.78400
O138        O  0.14541714  0.45835961  0.09448341    -0.82600
O139        O  0.10557240  0.40956650  0.12077640    -0.77500
O140        O  0.17165191  0.49024824  0.19072260    -0.79200
O141        O  0.15102077  0.35649818  0.17928186    -0.82000
C142        C  0.08924175  0.43169393  0.13262502     0.98800
C143        C  0.14737602  0.48977925  0.10265591     1.06200
O144        O  0.15186800  0.42826476  0.15776898    -1.11000
O145        O  0.20360240  0.38865586  0.15489702    -0.73400
O146        O  0.18989812  0.41163104  0.11042878    -0.76900
O147        O  0.09733368  0.45775821  0.14851562    -0.77600
C148        C  0.20855380  0.39990839  0.12804132     0.97700
O149        O  0.14906210  0.35803993  0.12867304    -0.75500
O150        O  0.19731349  0.44255737  0.19876255    -0.80700
C151        C  0.12815512  0.43383847  0.22960602     1.00300
C152        C  0.19366785  0.47499821  0.20011415     1.06200
O153        O  0.11978329  0.45516750  0.20975151    -0.76400
C154        C  0.14745809  0.34176511  0.15380256     1.04500
Fe155      Fe  0.14773521  0.09995782  0.11976638     1.65800
Fe156      Fe  0.17269983  0.10969933  0.19121738     1.73200
Fe157      Fe  0.13517273  0.03755272  0.17263155     1.54400
O158        O  0.09744452  0.05245433  0.15173832    -0.80100
O159        O  0.19705720  0.06857446  0.20260236    -0.78400
O160        O  0.10562721  0.10128526  0.12480653    -0.82600
O161        O  0.14482865  0.05196305  0.09830976    -0.77500
O162        O  0.11934852  0.05514971  0.21313555    -0.79200
O163        O  0.20298970  0.12227358  0.15853960    -0.82000
C164        C  0.14755258  0.02065284  0.10647328     0.98800
C165        C  0.08931787  0.07892370  0.13634627     1.06200
O166        O  0.15166228  0.08218059  0.16152928    -1.11000
O167        O  0.14997839  0.15395589  0.18273542    -0.73400
O168        O  0.14961178  0.15218860  0.13213742    -0.76900
O169        O  0.14871219  0.01183022  0.13416679    -0.77600
C170        C  0.14721835  0.16860697  0.15709086     0.97700
O171        O  0.18983438  0.09783832  0.11446362    -0.75500
O172        O  0.14659328  0.09870387  0.22815958    -0.80700
C173        C  0.19362124  0.03610298  0.20405706     1.00300
C174        C  0.12752327  0.07653525  0.23304032     1.06200
O175        O  0.17169201  0.02058851  0.19472263    -0.76400
C176        C  0.20830106  0.11004081  0.13207591     1.04500
C177        C  0.14264945  0.30485593  0.15337661    -0.16900
C178        C  0.14076823  0.27356168  0.15381412     0.07100
C179        C  0.14071582  0.23679590  0.15496575     0.09000
C180        C  0.14251517  0.20551767  0.15608685    -0.17800
C181        C  0.06022243  0.08441660  0.13120520    -0.16900
C182        C  0.03682130  0.09261009  0.12453477     0.07100
C183        C  0.01003474  0.10291852  0.11504506     0.09000
C184        C  0.48683711  0.10925033  0.10630323    -0.17800
C185        C  0.23660300  0.10827407  0.12198544    -0.16900
C186        C  0.25985727  0.10200835  0.11336543     0.07100
C187        C  0.28675258  0.09213733  0.10384432     0.09000
C188        C  0.31022317  0.08440750  0.09700790    -0.17800
C189        C  0.31010839  0.42585820  0.09239271    -0.16900
C190        C  0.28670292  0.41767710  0.09906141     0.07100
C191        C  0.25991263  0.40748783  0.10864334     0.09000
C192        C  0.23673113  0.40128731  0.11751289    -0.17800
C193        C  0.48657912  0.40269398  0.10207853    -0.16900
C194        C  0.00979514  0.40893317  0.11082310     0.07100
C195        C  0.03666732  0.41876547  0.12042812     0.09000
C196        C  0.06013973  0.42646646  0.12726187    -0.17800
C197        C  0.39281452  0.20581202  0.07060192    -0.16900
C198        C  0.39101730  0.23710455  0.07011447     0.07100
C199        C  0.39104522  0.27385477  0.06890310     0.09000
C200        C  0.39285862  0.30512261  0.06775417    -0.17800
C201        C  0.35128000  0.49398694  0.39075139    -0.16900
C202        C  0.35352660  0.47283478  0.41104458     0.07100
C203        C  0.35905547  0.45131470  0.43664489     0.09000
C204        C  0.36622702  0.43845168  0.46058745    -0.17800
C205        C  0.39776687  0.51649182  0.14084648    -0.16900
C206        C  0.39554600  0.53758087  0.16119782     0.07100
C207        C  0.39008940  0.55909065  0.18682940     0.09000
C208        C  0.38300302  0.57202028  0.21077826    -0.17800
C209        C  0.21603634  0.49410554  0.21392692    -0.16900
C210        C  0.23703432  0.50255380  0.22713754     0.07100
C211        C  0.26219172  0.50902062  0.24300934     0.09000
C212        C  0.28325284  0.51728871  0.25619047    -0.17800
C213        C  0.21613968  0.01728866  0.21789327    -0.16900
C214        C  0.23720163  0.00902212  0.23107290     0.07100
C215        C  0.26235958  0.00255742  0.24694366     0.09000
C216        C  0.28335865  0.99411128  0.26015260    -0.17800
C217        C  0.35687204  0.70552064  0.31799147    -0.16900
C218        C  0.35867211  0.73679900  0.31910995     0.07100
C219        C  0.35862218  0.77356502  0.32025940     0.09000
C220        C  0.35674364  0.80485948  0.32069583    -0.17800
C221        C  0.38215354  0.93832715  0.21406433    -0.16900
C222        C  0.38922638  0.95129238  0.19010915     0.07100
C223        C  0.39495343  0.97290376  0.16458334     0.09000
C224        C  0.39755798  0.99412602  0.14437189    -0.17800
C225        C  0.35181827  0.01649641  0.39456621    -0.16900
C226        C  0.35438997  0.03776703  0.41473601     0.07100
C227        C  0.36011932  0.05947649  0.44018458     0.09000
C228        C  0.36721993  0.07250500  0.46409584    -0.17800
C229        C  0.46592547  0.49389100  0.00606714    -0.16900
C230        C  0.48701769  0.50209755  0.49291282     0.07100
C231        C  0.01223788  0.50841686  0.47710815     0.09000
C232        C  0.03329957  0.51675742  0.46396293    -0.17800
C233        C  0.01254624  0.60926193  0.36781308    -0.16900
C234        C  0.48934798  0.60293062  0.35907167     0.07100
C235        C  0.46256157  0.59262228  0.34957927     0.09000
C236        C  0.43916118  0.58442818  0.34290418    -0.17800
C237        C  0.18916597  0.58441343  0.37707918    -0.16900
C238        C  0.21263507  0.59214688  0.37024016     0.07100
C239        C  0.23952850  0.60202185  0.36071610     0.09000
C240        C  0.26278226  0.60828844  0.35209537    -0.17800
C241        C  0.13219186  0.57250313  0.00998998    -0.16900
C242        C  0.13929646  0.55947433  0.03389886     0.07100
C243        C  0.14502703  0.53776223  0.05934385     0.09000
C244        C  0.14759752  0.51648888  0.07951033    -0.17800
C245        C  0.11723964  0.43833968  0.25999993    -0.16900
C246        C  0.11016577  0.45131147  0.28395284     0.07100
C247        C  0.10443632  0.47292600  0.30947744     0.09000
C248        C  0.10182959  0.49414676  0.32969114    -0.17800
C249        C  0.26266964  0.90130496  0.35656424    -0.16900
C250        C  0.23948810  0.90750519  0.36543473     0.07100
C251        C  0.21269679  0.91769145  0.37501752     0.09000
C252        C  0.18929055  0.92586959  0.38168700    -0.17800
C253        C  0.01282306  0.90269728  0.37197024    -0.16900
C254        C  0.48960797  0.90893348  0.36322219     0.07100
C255        C  0.46273650  0.91876520  0.35361615     0.09000
C256        C  0.43926414  0.92646778  0.34678494    -0.17800
C257        C  0.10657834  0.70582303  0.40349615    -0.16900
C258        C  0.10837468  0.73711581  0.40397614     0.07100
C259        C  0.10834614  0.77386669  0.40517553     0.09000
C260        C  0.10653322  0.80513492  0.40631640    -0.17800
C261        C  0.10163431  0.01650846  0.33324248    -0.16900
C262        C  0.10385257  0.03760026  0.31289449     0.07100
C263        C  0.10930524  0.05911091  0.28726410     0.09000
C264        C  0.11638938  0.07203721  0.26331409    -0.17800
C265        C  0.13315001  0.93845316  0.01349080    -0.16900
C266        C  0.14032022  0.95131197  0.03743613     0.07100
C267        C  0.14584967  0.97282742  0.06303987     0.09000
C268        C  0.14809776  0.99397721  0.08333565    -0.17800
C269        C  0.03346188  0.99389765  0.46800081    -0.16900
C270        C  0.01236945  0.00210385  0.48115528     0.07100
C271        C  0.48715014  0.00842247  0.49696226     0.09000
C272        C  0.46609081  0.01676264  0.01011279    -0.17800
Fe273      Fe  0.10172783  0.91067148  0.86997089     1.65800
Fe274      Fe  0.07665107  0.90119723  0.94146877     1.73200
Fe275      Fe  0.11435801  0.97319958  0.92276682     1.54400
O276        O  0.15212299  0.95797520  0.90215538    -0.80100
O277        O  0.05258276  0.94252036  0.95304893    -0.78400
O278        O  0.14383923  0.90926835  0.87508024    -0.82600
O279        O  0.10469268  0.95856654  0.84838829    -0.77500
O280        O  0.12989476  0.95574761  0.96345355    -0.79200
O281        O  0.04620834  0.88904021  0.90885008    -0.82000
C282        C  0.10215408  0.98992443  0.85646582     0.98800
C283        C  0.16019627  0.93149871  0.88674005     1.06200
O284        O  0.09777311  0.92857439  0.91171992    -1.11000
O285        O  0.09900752  0.85667746  0.93293845    -0.73400
O286        O  0.09976701  0.85848953  0.88235387    -0.76900
O287        O  0.10113265  0.99886897  0.88413594    -0.77600
C288        C  0.10190267  0.84204720  0.90730982     0.97700
O289        O  0.05964233  0.91280610  0.86457000    -0.75500
O290        O  0.10296839  0.91180534  0.97830208    -0.80700
C291        C  0.05596501  0.97501289  0.95420399     1.00300
C292        C  0.12191778  0.93411347  0.98324674     1.06200
O293        O  0.07780814  0.99048105  0.94458322    -0.76400
C294        C  0.04107016  0.90092756  0.88222236     1.04500
Fe295      Fe  0.10149403  0.60041382  0.86606727     1.65800
Fe296      Fe  0.07605977  0.60969216  0.93755187     1.73200
Fe297      Fe  0.11430382  0.53802283  0.91909726     1.54400
O298        O  0.10133488  0.51200450  0.88053634    -0.80100
O299        O  0.10198818  0.59887131  0.97465934    -0.78400
O300        O  0.10396033  0.55230165  0.84461909    -0.82600
O301        O  0.14369974  0.60130521  0.87077883    -0.77500
O302        O  0.07781202  0.52065809  0.94100805    -0.79200
O303        O  0.09847001  0.65414156  0.92939902    -0.82000
C304        C  0.16007244  0.57915810  0.88252886     0.98800
C305        C  0.10198805  0.52088998  0.85282347     1.06200
O306        O  0.09748276  0.58250189  0.90784057    -1.11000
O307        O  0.04582111  0.62232583  0.90492469    -0.73400
O308        O  0.05936039  0.59886922  0.86060539    -0.76900
O309        O  0.15202353  0.55305559  0.89840274    -0.77600
C310        C  0.04076165  0.61077093  0.87819623     0.97700
O311        O  0.10008132  0.65267056  0.87876933    -0.75500
O312        O  0.05193822  0.56826855  0.94863591    -0.80700
C313        C  0.12125501  0.57701094  0.97961918     1.00300
C314        C  0.05568842  0.53585969  0.95018165     1.06200
O315        O  0.12980243  0.55588936  0.95968653    -0.76400
C316        C  0.10184668  0.66891311  0.90390918     1.04500
Fe317      Fe  0.35163182  0.91030081  0.85807484     1.65800
Fe318      Fe  0.32611392  0.90108317  0.78656635     1.73200
Fe319      Fe  0.36428201  0.97283096  0.80505710     1.54400
O320        O  0.35145212  0.99872942  0.84372194    -0.80100
O321        O  0.35216371  0.91173315  0.74951169    -0.78400
O322        O  0.35398795  0.95836770  0.87958764    -0.82600
O323        O  0.39383124  0.90957768  0.85328640    -0.77500
O324        O  0.32774161  0.99025912  0.78336046    -0.79200
O325        O  0.34836970  0.85649833  0.79479001    -0.82000
C326        C  0.41016179  0.93169885  0.84142892     0.98800
C327        C  0.35203610  0.98978798  0.87141772     1.06200
O328        O  0.34753209  0.92827177  0.81629973    -1.11000
O329        O  0.29579308  0.88867401  0.81917381    -0.73400
O330        O  0.30950559  0.91163826  0.86364512    -0.76900
O331        O  0.40206977  0.95775999  0.82553589    -0.77600
C332        C  0.29084631  0.89992249  0.84603251     0.97700
O333        O  0.35034149  0.85804799  0.84539768    -0.75500
O334        O  0.30208961  0.94256343  0.77530133    -0.80700
C335        C  0.37123777  0.93383549  0.74445870     1.00300
C336        C  0.30572956  0.97500582  0.77396102     1.06200
O337        O  0.37960132  0.95517906  0.76430659    -0.76400
C338        C  0.35193772  0.84176911  0.82026904     1.04500
Fe339      Fe  0.35164745  0.59996774  0.85432200     1.65800
Fe340      Fe  0.32668844  0.60969952  0.78287020     1.73200
Fe341      Fe  0.36421735  0.53755991  0.80146100     1.54400
O342        O  0.40194121  0.55246081  0.82236767    -0.80100
O343        O  0.30232598  0.56857560  0.77149544    -0.78400
O344        O  0.39375545  0.60130125  0.84928664    -0.82600
O345        O  0.35455612  0.55197323  0.87577910    -0.77500
O346        O  0.38005407  0.55515894  0.76096424    -0.79200
O347        O  0.29640171  0.62229004  0.81554810    -0.82000
C348        C  0.35182735  0.52066294  0.86761477     0.98800
C349        C  0.41006633  0.57893509  0.83775605     1.06200
O350        O  0.34772491  0.58218614  0.81256006    -1.11000
O351        O  0.34941730  0.65395217  0.79134683    -0.73400
O352        O  0.34976749  0.65219697  0.84194556    -0.76900
O353        O  0.35066504  0.51184019  0.83992082    -0.77600
C354        C  0.35216928  0.66860962  0.81699061     0.97700
O355        O  0.30954845  0.59784273  0.85961996    -0.75500
O356        O  0.35279028  0.59868659  0.74592601    -0.80700
C357        C  0.30576881  0.53610588  0.77003012     1.00300
C358        C  0.37186925  0.57652773  0.74105173     1.06200
O359        O  0.32770302  0.52059597  0.77935597    -0.76400
C360        C  0.29108522  0.61005211  0.84200812     1.04500
Fe361      Fe  0.39767265  0.41065946  0.60410075     1.65800
Fe362      Fe  0.42273552  0.40118758  0.53259409     1.73200
Fe363      Fe  0.38503711  0.47319354  0.55131394     1.54400
O364        O  0.34727313  0.45796499  0.57192285    -0.80100
O365        O  0.44679794  0.44251265  0.52100427    -0.78400
O366        O  0.35556016  0.40926175  0.59899974    -0.82600
O367        O  0.39471521  0.45855134  0.62569130    -0.77500
O368        O  0.36950033  0.45575124  0.51062275    -0.79200
O369        O  0.45318890  0.38903862  0.56520242    -0.82000
C370        C  0.39724732  0.48991083  0.61761841     0.98800
C371        C  0.33920194  0.43148964  0.58733959     1.06200
O372        O  0.40162095  0.42856483  0.56235193    -1.11000
O373        O  0.40038637  0.35666263  0.54113004    -0.73400
O374        O  0.39962645  0.35847862  0.59171444    -0.76900
O375        O  0.39826125  0.49885936  0.58994940    -0.77600
C376        C  0.39749067  0.34203459  0.56675888     0.97700
O377        O  0.43975960  0.41278895  0.60949249    -0.75500
O378        O  0.39640575  0.41178994  0.99577055    -0.80700
C379        C  0.44342241  0.47500681  0.51986392     1.00300
C380        C  0.37746425  0.43410892  0.99082914     1.06200
O381        O  0.42158652  0.49047777  0.52950082    -0.76400
C382        C  0.45833007  0.40091951  0.59183246     1.04500
Fe383      Fe  0.39789208  0.10040274  0.60802563     1.65800
Fe384      Fe  0.42334141  0.10968830  0.53655322     1.73200
Fe385      Fe  0.38508527  0.03802617  0.55498245     1.54400
O386        O  0.39806844  0.01199876  0.59353146    -0.80100
O387        O  0.39743155  0.09885359  0.99943123    -0.78400
O388        O  0.39541127  0.05228370  0.62945949    -0.82600
O389        O  0.35568833  0.10130896  0.60330297    -0.77500
O390        O  0.42157141  0.02066998  0.53305130    -0.79200
O391        O  0.40091751  0.15412800  0.54469940    -0.82000
C392        C  0.33931727  0.07915500  0.59155932     0.98800
C393        C  0.39739901  0.02087530  0.62124686     1.06200
O394        O  0.40190953  0.08249750  0.56625173    -1.11000
O395        O  0.45356452  0.12233500  0.56919538    -0.73400
O396        O  0.44002358  0.09884270  0.61349724    -0.76900
O397        O  0.34736885  0.05304712  0.57569276    -0.77600
C398        C  0.45862315  0.11076041  0.59591677     0.97700
O399        O  0.39931855  0.15266196  0.59532995    -0.75500
O400        O  0.44747287  0.06826948  0.52548357    -0.80700
C401        C  0.37814781  0.07701564  0.99447063     1.00300
C402        C  0.44370720  0.03586535  0.52390458     1.06200
O403        O  0.36957506  0.05591647  0.01440762    -0.76400
C404        C  0.39754642  0.16890235  0.57018983     1.04500
Fe405      Fe  0.14777195  0.41029182  0.61599375     1.65800
Fe406      Fe  0.17328377  0.40107901  0.68750361     1.73200
Fe407      Fe  0.13511710  0.47282309  0.66900995     1.54400
O408        O  0.14796306  0.49871944  0.63035238    -0.80100
O409        O  0.14723702  0.41174436  0.72455915    -0.78400
O410        O  0.14541710  0.45835962  0.59448336    -0.82600
O411        O  0.10557234  0.40956648  0.62077627    -0.77500
O412        O  0.17165189  0.49024815  0.69072260    -0.79200
O413        O  0.15102082  0.35649818  0.67928186    -0.82000
C414        C  0.08924171  0.43169388  0.63262497     0.98800
C415        C  0.14737601  0.48977924  0.60265591     1.06200
O416        O  0.15186798  0.42826470  0.65776892    -1.11000
O417        O  0.20360237  0.38865592  0.65489699    -0.73400
O418        O  0.18989805  0.41163097  0.61042869    -0.76900
O419        O  0.09733367  0.45775810  0.64851563    -0.77600
C420        C  0.20855375  0.39990841  0.62804125     0.97700
O421        O  0.14906197  0.35803992  0.62867302    -0.75500
O422        O  0.19731353  0.44255736  0.69876253    -0.80700
C423        C  0.12815512  0.43383837  0.72960603     1.00300
C424        C  0.19366786  0.47499817  0.70011417     1.06200
O425        O  0.11978325  0.45516735  0.70975148    -0.76400
C426        C  0.14745806  0.34176509  0.65380258     1.04500
Fe427      Fe  0.14773524  0.09995769  0.61976639     1.65800
Fe428      Fe  0.17269981  0.10969929  0.69121739     1.73200
Fe429      Fe  0.13517275  0.03755262  0.67263158     1.54400
O430        O  0.09744454  0.05245426  0.65173834    -0.80100
O431        O  0.19705718  0.06857445  0.70260239    -0.78400
O432        O  0.10562723  0.10128510  0.62480641    -0.82600
O433        O  0.14482869  0.05196293  0.59830977    -0.77500
O434        O  0.11934857  0.05514960  0.71313559    -0.79200
O435        O  0.20298967  0.12227356  0.65853962    -0.82000
C436        C  0.14755257  0.02065274  0.60647333     0.98800
C437        C  0.08931790  0.07892360  0.63634622     1.06200
O438        O  0.15166227  0.08218051  0.66152931    -1.11000
O439        O  0.14997838  0.15395588  0.68273540    -0.73400
O440        O  0.14961176  0.15218851  0.63213740    -0.76900
O441        O  0.14871219  0.01183009  0.63416680    -0.77600
C442        C  0.14721835  0.16860692  0.65709082     0.97700
O443        O  0.18983442  0.09783819  0.61446367    -0.75500
O444        O  0.14659327  0.09870383  0.72815960    -0.80700
C445        C  0.19362124  0.03610296  0.70405706     1.00300
C446        C  0.12752330  0.07653517  0.73304036     1.06200
O447        O  0.17169203  0.02058844  0.69472264    -0.76400
C448        C  0.20830107  0.11004076  0.63207595     1.04500
C449        C  0.14264946  0.30485591  0.65337666    -0.16900
C450        C  0.14076825  0.27356167  0.65381415     0.07100
C451        C  0.14071584  0.23679588  0.65496575     0.09000
C452        C  0.14251518  0.20551763  0.65608680    -0.17800
C453        C  0.06022245  0.08441648  0.63120517    -0.16900
C454        C  0.03682130  0.09260990  0.62453472     0.07100
C455        C  0.01003474  0.10291833  0.61504503     0.09000
C456        C  0.48683711  0.10925023  0.60630325    -0.17800
C457        C  0.23660302  0.10827405  0.62198551    -0.16900
C458        C  0.25985730  0.10200830  0.61336551     0.07100
C459        C  0.28675260  0.09213730  0.60384437     0.09000
C460        C  0.31022320  0.08440746  0.59700793    -0.17800
C461        C  0.31010838  0.42585809  0.59239269    -0.16900
C462        C  0.28670290  0.41767704  0.59906140     0.07100
C463        C  0.25991260  0.40748777  0.60864334     0.09000
C464        C  0.23673108  0.40128729  0.61751284    -0.17800
C465        C  0.48657912  0.40269399  0.60207849    -0.16900
C466        C  0.00979511  0.40893315  0.61082310     0.07100
C467        C  0.03666728  0.41876546  0.62042812     0.09000
C468        C  0.06013969  0.42646645  0.62726187    -0.17800
C469        C  0.39281453  0.20581204  0.57060200    -0.16900
C470        C  0.39101732  0.23710451  0.57011452     0.07100
C471        C  0.39104524  0.27385481  0.56890308     0.09000
C472        C  0.39285862  0.30512259  0.56775419    -0.17800
C473        C  0.35127999  0.49398699  0.89075142    -0.16900
C474        C  0.35352657  0.47283480  0.91104457     0.07100
C475        C  0.35905543  0.45131468  0.93664488     0.09000
C476        C  0.36622696  0.43845168  0.96058747    -0.17800
C477        C  0.39776688  0.51649183  0.64084645    -0.16900
C478        C  0.39554603  0.53758091  0.66119773     0.07100
C479        C  0.39008941  0.55909075  0.68682935     0.09000
C480        C  0.38300302  0.57202032  0.71077819    -0.17800
C481        C  0.21603631  0.49410555  0.71392694    -0.16900
C482        C  0.23703434  0.50255383  0.72713749     0.07100
C483        C  0.26219173  0.50902065  0.74300931     0.09000
C484        C  0.28325282  0.51728874  0.75619050    -0.17800
C485        C  0.21613971  0.01728865  0.71789327    -0.16900
C486        C  0.23720161  0.00902213  0.73107294     0.07100
C487        C  0.26235957  0.00255743  0.74694370     0.09000
C488        C  0.28335864  0.99411127  0.76015258    -0.17800
C489        C  0.35687203  0.70552065  0.81799151    -0.16900
C490        C  0.35867212  0.73679903  0.81911003     0.07100
C491        C  0.35862219  0.77356501  0.82025941     0.09000
C492        C  0.35674365  0.80485951  0.82069585    -0.17800
C493        C  0.38215352  0.93832707  0.71406431    -0.16900
C494        C  0.38922638  0.95129236  0.69010918     0.07100
C495        C  0.39495345  0.97290372  0.66458336     0.09000
C496        C  0.39755802  0.99412592  0.64437186    -0.17800
C497        C  0.35181828  0.01649641  0.89456618    -0.16900
C498        C  0.35438996  0.03776705  0.91473597     0.07100
C499        C  0.36011928  0.05947647  0.94018456     0.09000
C500        C  0.36721991  0.07250497  0.96409583    -0.17800
C501        C  0.46592549  0.49389098  0.50606716    -0.16900
C502        C  0.48701770  0.50209756  0.99291280     0.07100
C503        C  0.01223787  0.50841686  0.97710817     0.09000
C504        C  0.03329959  0.51675743  0.96396294    -0.17800
C505        C  0.01254622  0.60926199  0.86781310    -0.16900
C506        C  0.48934798  0.60293069  0.85907171     0.07100
C507        C  0.46256156  0.59262231  0.84957933     0.09000
C508        C  0.43916119  0.58442822  0.84290420    -0.17800
C509        C  0.18916597  0.58441344  0.87707920    -0.16900
C510        C  0.21263508  0.59214690  0.87024015     0.07100
C511        C  0.23952849  0.60202181  0.86071604     0.09000
C512        C  0.26278227  0.60828837  0.85209526    -0.17800
C513        C  0.13219182  0.57250311  0.50999001    -0.16900
C514        C  0.13929646  0.55947435  0.53389887     0.07100
C515        C  0.14502702  0.53776227  0.55934392     0.09000
C516        C  0.14759750  0.51648892  0.57951036    -0.17800
C517        C  0.11723959  0.43833964  0.75999996    -0.16900
C518        C  0.11016574  0.45131147  0.78395280     0.07100
C519        C  0.10443626  0.47292604  0.80947746     0.09000
C520        C  0.10182950  0.49414667  0.82969116    -0.17800
C521        C  0.26266967  0.90130501  0.85656425    -0.16900
C522        C  0.23948810  0.90750518  0.86543476     0.07100
C523        C  0.21269681  0.91769144  0.87501753     0.09000
C524        C  0.18929055  0.92586961  0.88168701    -0.17800
C525        C  0.01282307  0.90269732  0.87197022    -0.16900
C526        C  0.48960798  0.90893350  0.86322219     0.07100
C527        C  0.46273651  0.91876522  0.85361619     0.09000
C528        C  0.43926413  0.92646781  0.84678495    -0.17800
C529        C  0.10657835  0.70582300  0.90349606    -0.16900
C530        C  0.10837467  0.73711574  0.90397612     0.07100
C531        C  0.10834611  0.77386668  0.90517557     0.09000
C532        C  0.10653321  0.80513487  0.90631640    -0.17800
C533        C  0.10163431  0.01650841  0.83324250    -0.16900
C534        C  0.10385258  0.03760018  0.81289448     0.07100
C535        C  0.10930528  0.05911087  0.78726413     0.09000
C536        C  0.11638942  0.07203717  0.76331412    -0.17800
C537        C  0.13314997  0.93845325  0.51349076    -0.16900
C538        C  0.14032015  0.95131201  0.53743602     0.07100
C539        C  0.14584965  0.97282739  0.56303989     0.09000
C540        C  0.14809773  0.99397708  0.58333564    -0.17800
C541        C  0.03346188  0.99389772  0.96800073    -0.16900
C542        C  0.01236941  0.00210392  0.98115520     0.07100
C543        C  0.48715014  0.00842245  0.99696220     0.09000
C544        C  0.46609085  0.01676267  0.51011277    -0.17800
Fe545      Fe  0.60172784  0.91067145  0.36997088     1.65800
Fe546      Fe  0.57665108  0.90119720  0.44146876     1.73200
Fe547      Fe  0.61435796  0.97319957  0.42276676     1.54400
O548        O  0.65212293  0.95797521  0.40215527    -0.80100
O549        O  0.55258274  0.94252027  0.45304893    -0.78400
O550        O  0.64383924  0.90926826  0.37508025    -0.82600
O551        O  0.60469272  0.95856654  0.34838829    -0.77500
O552        O  0.62989475  0.95574760  0.46345346    -0.79200
O553        O  0.54620836  0.88904012  0.40885008    -0.82000
C554        C  0.60215407  0.98992445  0.35646580     0.98800
C555        C  0.66019624  0.93149868  0.38674002     1.06200
O556        O  0.59777307  0.92857439  0.41171990    -1.11000
O557        O  0.59900758  0.85667750  0.43293842    -0.73400
O558        O  0.59976696  0.85848950  0.38235383    -0.76900
O559        O  0.60113256  0.99886899  0.38413591    -0.77600
C560        C  0.60190267  0.84204719  0.40730980     0.97700
O561        O  0.55964234  0.91280608  0.36457001    -0.75500
O562        O  0.60296841  0.91180533  0.47830206    -0.80700
C563        C  0.55596498  0.97501280  0.45420401     1.00300
C564        C  0.62191776  0.93411347  0.48324666     1.06200
O565        O  0.57780810  0.99048099  0.44458321    -0.76400
C566        C  0.54107018  0.90092750  0.38222240     1.04500
Fe567      Fe  0.60149408  0.60041391  0.36606734     1.65800
Fe568      Fe  0.57605971  0.60969217  0.43755188     1.73200
Fe569      Fe  0.61430382  0.53802286  0.41909724     1.54400
O570        O  0.60133489  0.51200453  0.38053632    -0.80100
O571        O  0.60198812  0.59887135  0.47465937    -0.78400
O572        O  0.60396040  0.55230174  0.34461912    -0.82600
O573        O  0.64369979  0.60130529  0.37077890    -0.77500
O574        O  0.57781202  0.52065811  0.44100803    -0.79200
O575        O  0.59846986  0.65414163  0.42939910    -0.82000
C576        C  0.66007245  0.57915812  0.38252886     0.98800
C577        C  0.60198810  0.52089005  0.35282346     1.06200
O578        O  0.59748279  0.58250195  0.40784061    -1.11000
O579        O  0.54582107  0.62232583  0.40492469    -0.73400
O580        O  0.55936046  0.59886932  0.36060540    -0.76900
O581        O  0.65202354  0.55305560  0.39840270    -0.77600
C582        C  0.54076168  0.61077096  0.37819620     0.97700
O583        O  0.60008135  0.65267063  0.37876942    -0.75500
O584        O  0.55193819  0.56826853  0.44863592    -0.80700
C585        C  0.62125496  0.57701100  0.47961919     1.00300
C586        C  0.55568844  0.53585969  0.45018163     1.06200
O587        O  0.62980242  0.55588943  0.45968652    -0.76400
C588        C  0.60184664  0.66891319  0.40390929     1.04500
Fe589      Fe  0.85163177  0.91030077  0.35807484     1.65800
Fe590      Fe  0.82611385  0.90108318  0.28656634     1.73200
Fe591      Fe  0.86428195  0.97283096  0.30505716     1.54400
O592        O  0.85145204  0.99872943  0.34372197    -0.80100
O593        O  0.85216370  0.91173317  0.24951172    -0.78400
O594        O  0.85398785  0.95836768  0.37958764    -0.82600
O595        O  0.89383122  0.90957762  0.35328641    -0.77500
O596        O  0.82774157  0.99025913  0.28336053    -0.79200
O597        O  0.84836960  0.85649832  0.29478999    -0.82000
C598        C  0.91016177  0.93169879  0.34142897     0.98800
C599        C  0.85203601  0.98978799  0.37141774     1.06200
O600        O  0.84753201  0.92827175  0.31629975    -1.11000
O601        O  0.79579298  0.88867399  0.31917378    -0.73400
O602        O  0.80950554  0.91163824  0.36364506    -0.76900
O603        O  0.90206972  0.95775996  0.32553597    -0.77600
C604        C  0.79084626  0.89992244  0.34603248     0.97700
O605        O  0.85034146  0.85804797  0.34539765    -0.75500
O606        O  0.80208958  0.94256347  0.27530131    -0.80700
C607        C  0.87123776  0.93383553  0.24445875     1.00300
C608        C  0.80572952  0.97500586  0.27396102     1.06200
O609        O  0.87960127  0.95517908  0.26430667    -0.76400
C610        C  0.85193769  0.84176911  0.32026901     1.04500
Fe611      Fe  0.85164741  0.59996771  0.35432208     1.65800
Fe612      Fe  0.82668848  0.60969944  0.28287029     1.73200
Fe613      Fe  0.86421738  0.53755986  0.30146103     1.54400
O614        O  0.90194119  0.55246073  0.32236776    -0.80100
O615        O  0.80232600  0.56857555  0.27149555    -0.78400
O616        O  0.89375539  0.60130123  0.34928666    -0.82600
O617        O  0.85455610  0.55197317  0.37577914    -0.77500
O618        O  0.88005419  0.55515892  0.26096432    -0.79200
O619        O  0.79640174  0.62229002  0.31554819    -0.82000
C620        C  0.85182734  0.52066287  0.36761476     0.98800
C621        C  0.91006631  0.57893507  0.33775610     1.06200
O622        O  0.84772491  0.58218606  0.31256016    -1.11000
O623        O  0.84941736  0.65395207  0.29134690    -0.73400
O624        O  0.84976742  0.65219696  0.34194564    -0.76900
O625        O  0.85066500  0.51184015  0.33992081    -0.77600
C626        C  0.85216928  0.66860956  0.31699066     0.97700
O627        O  0.80954840  0.59784275  0.35962009    -0.75500
O628        O  0.85279034  0.59868652  0.24592611    -0.80700
C629        C  0.80576885  0.53610582  0.27003010     1.00300
C630        C  0.87186934  0.57652769  0.24105181     1.06200
O631        O  0.82770309  0.52059592  0.27935592    -0.76400
C632        C  0.79108524  0.61005217  0.34200821     1.04500
Fe633      Fe  0.89767256  0.41065946  0.10410076     1.65800
Fe634      Fe  0.92273551  0.40118764  0.03259412     1.73200
Fe635      Fe  0.88503708  0.47319359  0.05131395     1.54400
O636        O  0.84727310  0.45796509  0.07192288    -0.80100
O637        O  0.94679794  0.44251271  0.02100427    -0.78400
O638        O  0.85556006  0.40926179  0.09899970    -0.82600
O639        O  0.89471507  0.45855136  0.12569132    -0.77500
O640        O  0.86950030  0.45575127  0.01062275    -0.79200
O641        O  0.95318889  0.38903871  0.06520246    -0.82000
C642        C  0.89724720  0.48991087  0.11761845     0.98800
C643        C  0.83920190  0.43148974  0.08733958     1.06200
O644        O  0.90162090  0.42856488  0.06235195    -1.11000
O645        O  0.90038640  0.35666266  0.04113001    -0.73400
O646        O  0.89962635  0.35847863  0.09171442    -0.76900
O647        O  0.89826121  0.49885940  0.08994942    -0.77600
C648        C  0.89749064  0.34203458  0.06675883     0.97700
O649        O  0.93975953  0.41278889  0.10949256    -0.75500
O650        O  0.89640583  0.41178995  0.49577052    -0.80700
C651        C  0.94342243  0.47500686  0.01986390     1.00300
C652        C  0.87746428  0.43410886  0.49082911     1.06200
O653        O  0.92158650  0.49047780  0.02950081    -0.76400
C654        C  0.95833002  0.40091952  0.09183253     1.04500
Fe655      Fe  0.89789211  0.10040278  0.10802555     1.65800
Fe656      Fe  0.92334145  0.10968826  0.03655317     1.73200
Fe657      Fe  0.88508522  0.03802618  0.05498242     1.54400
O658        O  0.89806836  0.01199877  0.09353146    -0.80100
O659        O  0.89743157  0.09885363  0.49943127    -0.78400
O660        O  0.89541125  0.05228377  0.12945945    -0.82600
O661        O  0.85568835  0.10130905  0.10330285    -0.77500
O662        O  0.92157135  0.02066993  0.03305122    -0.79200
O663        O  0.90091759  0.15412801  0.04469932    -0.82000
C664        C  0.83931729  0.07915505  0.09155926     0.98800
C665        C  0.89739897  0.02087535  0.12124687     1.06200
O666        O  0.90190953  0.08249751  0.06625166    -1.11000
O667        O  0.95356456  0.12233497  0.06919535    -0.73400
O668        O  0.94002362  0.09884276  0.11349723    -0.76900
O669        O  0.84736881  0.05304716  0.07569275    -0.77600
C670        C  0.95862316  0.11076046  0.09591675     0.97700
O671        O  0.89931863  0.15266199  0.09532987    -0.75500
O672        O  0.94747288  0.06826938  0.02548358    -0.80700
C673        C  0.87814786  0.07701567  0.49447064     1.00300
C674        C  0.94370715  0.03586525  0.02390457     1.06200
O675        O  0.86957509  0.05591647  0.51440761    -0.76400
C676        C  0.89754651  0.16890238  0.07018975     1.04500
Fe677      Fe  0.64777197  0.41029186  0.11599384     1.65800
Fe678      Fe  0.67328370  0.40107899  0.18750365     1.73200
Fe679      Fe  0.63511704  0.47282318  0.16900997     1.54400
O680        O  0.64796298  0.49871949  0.13035238    -0.80100
O681        O  0.64723688  0.41174432  0.22455908    -0.78400
O682        O  0.64541709  0.45835960  0.09448341    -0.82600
O683        O  0.60557236  0.40956651  0.12077639    -0.77500
O684        O  0.67165185  0.49024824  0.19072258    -0.79200
O685        O  0.65102077  0.35649814  0.17928184    -0.82000
C686        C  0.58924169  0.43169394  0.13262501     0.98800
C687        C  0.64737599  0.48977924  0.10265590     1.06200
O688        O  0.65186794  0.42826475  0.15776899    -1.11000
O689        O  0.70360237  0.38865590  0.15489706    -0.73400
O690        O  0.68989807  0.41163102  0.11042879    -0.76900
O691        O  0.59733362  0.45775822  0.14851563    -0.77600
C692        C  0.70855375  0.39990840  0.12804135     0.97700
O693        O  0.64906204  0.35803993  0.12867302    -0.75500
O694        O  0.69731341  0.44255737  0.19876260    -0.80700
C695        C  0.62815504  0.43383844  0.22960601     1.00300
C696        C  0.69366781  0.47499820  0.20011418     1.06200
O697        O  0.61978324  0.45516752  0.20975152    -0.76400
C698        C  0.64745809  0.34176508  0.15380253     1.04500
Fe699      Fe  0.64773516  0.09995783  0.11976639     1.65800
Fe700      Fe  0.67269980  0.10969934  0.19121740     1.73200
Fe701      Fe  0.63517276  0.03755272  0.17263155     1.54400
O702        O  0.59744455  0.05245430  0.15173830    -0.80100
O703        O  0.69705717  0.06857448  0.20260237    -0.78400
O704        O  0.60562717  0.10128528  0.12480655    -0.82600
O705        O  0.64482859  0.05196306  0.09830976    -0.77500
O706        O  0.61934853  0.05514969  0.21313554    -0.79200
O707        O  0.70298967  0.12227360  0.15853960    -0.82000
C708        C  0.64755258  0.02065285  0.10647329     0.98800
C709        C  0.58931784  0.07892369  0.13634626     1.06200
O710        O  0.65166227  0.08218061  0.16152928    -1.11000
O711        O  0.64997834  0.15395589  0.18273545    -0.73400
O712        O  0.64961175  0.15218859  0.13213745    -0.76900
O713        O  0.64871228  0.01183024  0.13416679    -0.77600
C714        C  0.64721834  0.16860697  0.15709089     0.97700
O715        O  0.68983434  0.09783833  0.11446363    -0.75500
O716        O  0.64659325  0.09870389  0.22815958    -0.80700
C717        C  0.69362125  0.03610298  0.20405707     1.00300
C718        C  0.62752327  0.07653525  0.23304033     1.06200
O719        O  0.67169202  0.02058849  0.19472263    -0.76400
C720        C  0.70830099  0.11004081  0.13207593     1.04500
C721        C  0.64264949  0.30485590  0.15337658    -0.16900
C722        C  0.64076828  0.27356166  0.15381411     0.07100
C723        C  0.64071591  0.23679588  0.15496578     0.09000
C724        C  0.64251524  0.20551767  0.15608688    -0.17800
C725        C  0.56022244  0.08441655  0.13120523    -0.16900
C726        C  0.53682124  0.09261009  0.12453476     0.07100
C727        C  0.51003477  0.10291851  0.11504504     0.09000
C728        C  0.98683716  0.10925034  0.10630326    -0.17800
C729        C  0.73660300  0.10827404  0.12198544    -0.16900
C730        C  0.75985721  0.10200836  0.11336547     0.07100
C731        C  0.78675262  0.09213735  0.10384434     0.09000
C732        C  0.81022314  0.08440754  0.09700792    -0.17800
C733        C  0.81010832  0.42585821  0.09239270    -0.16900
C734        C  0.78670289  0.41767711  0.09906141     0.07100
C735        C  0.75991256  0.40748782  0.10864337     0.09000
C736        C  0.73673111  0.40128732  0.11751291    -0.17800
C737        C  0.98657911  0.40269403  0.10207857    -0.16900
C738        C  0.50979516  0.40893317  0.11082310     0.07100
C739        C  0.53666726  0.41876549  0.12042813     0.09000
C740        C  0.56013972  0.42646647  0.12726188    -0.17800
C741        C  0.89281459  0.20581203  0.07060192    -0.16900
C742        C  0.89101730  0.23710455  0.07011447     0.07100
C743        C  0.89104516  0.27385479  0.06890309     0.09000
C744        C  0.89285856  0.30512262  0.06775416    -0.17800
C745        C  0.85128003  0.49398693  0.39075139    -0.16900
C746        C  0.85352661  0.47283478  0.41104459     0.07100
C747        C  0.85905546  0.45131469  0.43664489     0.09000
C748        C  0.86622702  0.43845165  0.46058745    -0.17800
C749        C  0.89776677  0.51649181  0.14084647    -0.16900
C750        C  0.89554597  0.53758087  0.16119782     0.07100
C751        C  0.89008940  0.55909067  0.18682941     0.09000
C752        C  0.88300307  0.57202029  0.21077828    -0.17800
C753        C  0.71603629  0.49410553  0.21392692    -0.16900
C754        C  0.73703434  0.50255377  0.22713753     0.07100
C755        C  0.76219170  0.50902060  0.24300932     0.09000
C756        C  0.78325286  0.51728873  0.25619046    -0.17800
C757        C  0.71613968  0.01728869  0.21789328    -0.16900
C758        C  0.73720165  0.00902213  0.23107290     0.07100
C759        C  0.76235956  0.00255744  0.24694363     0.09000
C760        C  0.78335866  0.99411130  0.26015258    -0.17800
C761        C  0.85687207  0.70552064  0.31799149    -0.16900
C762        C  0.85867219  0.73679900  0.31910996     0.07100
C763        C  0.85862224  0.77356501  0.32025939     0.09000
C764        C  0.85674368  0.80485949  0.32069583    -0.17800
C765        C  0.88215355  0.93832711  0.21406437    -0.16900
C766        C  0.88922639  0.95129236  0.19010918     0.07100
C767        C  0.89495337  0.97290373  0.16458337     0.09000
C768        C  0.89755797  0.99412599  0.14437189    -0.17800
C769        C  0.85181824  0.01649641  0.39456622    -0.16900
C770        C  0.85438995  0.03776703  0.41473602     0.07100
C771        C  0.86011931  0.05947650  0.44018459     0.09000
C772        C  0.86721997  0.07250500  0.46409582    -0.17800
C773        C  0.96592545  0.49389101  0.00606717    -0.16900
C774        C  0.98701770  0.50209756  0.49291281     0.07100
C775        C  0.51223788  0.50841685  0.47710814     0.09000
C776        C  0.53329957  0.51675737  0.46396294    -0.17800
C777        C  0.51254624  0.60926192  0.36781303    -0.16900
C778        C  0.98934795  0.60293061  0.35907168     0.07100
C779        C  0.96256156  0.59262228  0.34957929     0.09000
C780        C  0.93916114  0.58442823  0.34290421    -0.17800
C781        C  0.68916602  0.58441342  0.37707918    -0.16900
C782        C  0.71263507  0.59214686  0.37024017     0.07100
C783        C  0.73952853  0.60202187  0.36071608     0.09000
C784        C  0.76278224  0.60828847  0.35209535    -0.17800
C785        C  0.63219180  0.57250314  0.00998998    -0.16900
C786        C  0.63929643  0.55947433  0.03389888     0.07100
C787        C  0.64502700  0.53776224  0.05934384     0.09000
C788        C  0.64759752  0.51648886  0.07951033    -0.17800
C789        C  0.61723959  0.43833967  0.25999995    -0.16900
C790        C  0.61016578  0.45131147  0.28395285     0.07100
C791        C  0.60443630  0.47292601  0.30947746     0.09000
C792        C  0.60182955  0.49414675  0.32969115    -0.17800
C793        C  0.76266962  0.90130496  0.35656426    -0.16900
C794        C  0.73948808  0.90750516  0.36543476     0.07100
C795        C  0.71269678  0.91769141  0.37501756     0.09000
C796        C  0.68929055  0.92586958  0.38168704    -0.17800
C797        C  0.51282306  0.90269728  0.37197026    -0.16900
C798        C  0.98960794  0.90893351  0.36322217     0.07100
C799        C  0.96273651  0.91876518  0.35361617     0.09000
C800        C  0.93926409  0.92646778  0.34678494    -0.17800
C801        C  0.60657836  0.70582303  0.40349616    -0.16900
C802        C  0.60837467  0.73711581  0.40397614     0.07100
C803        C  0.60834609  0.77386669  0.40517553     0.09000
C804        C  0.60653321  0.80513492  0.40631640    -0.17800
C805        C  0.60163432  0.01650845  0.33324248    -0.16900
C806        C  0.60385254  0.03760026  0.31289448     0.07100
C807        C  0.60930519  0.05911092  0.28726409     0.09000
C808        C  0.61638937  0.07203721  0.26331409    -0.17800
C809        C  0.63315002  0.93845318  0.01349080    -0.16900
C810        C  0.64032023  0.95131197  0.03743612     0.07100
C811        C  0.64584971  0.97282741  0.06303987     0.09000
C812        C  0.64809778  0.99397721  0.08333564    -0.17800
C813        C  0.53346190  0.99389760  0.46800078    -0.16900
C814        C  0.51236943  0.00210386  0.48115531     0.07100
C815        C  0.98715008  0.00842245  0.49696226     0.09000
C816        C  0.96609083  0.01676256  0.01011273    -0.17800
Fe817      Fe  0.60172786  0.91067147  0.86997089     1.65800
Fe818      Fe  0.57665109  0.90119722  0.94146879     1.73200
Fe819      Fe  0.61435796  0.97319958  0.92276680     1.54400
O820        O  0.65212295  0.95797520  0.90215536    -0.80100
O821        O  0.55258275  0.94252030  0.95304894    -0.78400
O822        O  0.64383926  0.90926831  0.87508026    -0.82600
O823        O  0.60469275  0.95856654  0.84838828    -0.77500
O824        O  0.62989472  0.95574764  0.96345354    -0.79200
O825        O  0.54620839  0.88904019  0.90885009    -0.82000
C826        C  0.60215408  0.98992444  0.85646580     0.98800
C827        C  0.66019626  0.93149871  0.88674006     1.06200
O828        O  0.59777309  0.92857439  0.91171992    -1.11000
O829        O  0.59900758  0.85667748  0.93293845    -0.73400
O830        O  0.59976699  0.85848952  0.88235386    -0.76900
O831        O  0.60113258  0.99886897  0.88413592    -0.77600
C832        C  0.60190268  0.84204721  0.90730982     0.97700
O833        O  0.55964237  0.91280611  0.86457000    -0.75500
O834        O  0.60296842  0.91180532  0.97830210    -0.80700
C835        C  0.55596494  0.97501285  0.95420400     1.00300
C836        C  0.62191777  0.93411347  0.98324674     1.06200
O837        O  0.57780809  0.99048102  0.94458318    -0.76400
C838        C  0.54107021  0.90092756  0.88222238     1.04500
Fe839      Fe  0.60149408  0.60041383  0.86606728     1.65800
Fe840      Fe  0.57605972  0.60969213  0.93755185     1.73200
Fe841      Fe  0.61430385  0.53802284  0.91909727     1.54400
O842        O  0.60133494  0.51200450  0.88053635    -0.80100
O843        O  0.60198811  0.59887128  0.97465935    -0.78400
O844        O  0.60396037  0.55230165  0.84461910    -0.82600
O845        O  0.64369980  0.60130519  0.87077884    -0.77500
O846        O  0.57781205  0.52065810  0.94100806    -0.79200
O847        O  0.59846990  0.65414158  0.92939904    -0.82000
C848        C  0.66007248  0.57915809  0.88252887     0.98800
C849        C  0.60198810  0.52088999  0.85282348     1.06200
O850        O  0.59748280  0.58250191  0.90784058    -1.11000
O851        O  0.54582109  0.62232581  0.90492468    -0.73400
O852        O  0.55936044  0.59886925  0.86060539    -0.76900
O853        O  0.65202358  0.55305559  0.89840275    -0.77600
C854        C  0.54076168  0.61077094  0.87819621     0.97700
O855        O  0.60008139  0.65267056  0.87876936    -0.75500
O856        O  0.55193818  0.56826851  0.94863588    -0.80700
C857        C  0.62125498  0.57701094  0.97961919     1.00300
C858        C  0.55568843  0.53585967  0.95018163     1.06200
O859        O  0.62980245  0.55588941  0.95968652    -0.76400
C860        C  0.60184667  0.66891310  0.90390921     1.04500
Fe861      Fe  0.85163178  0.91030080  0.85807485     1.65800
Fe862      Fe  0.82611385  0.90108316  0.78656635     1.73200
Fe863      Fe  0.86428195  0.97283096  0.80505710     1.54400
O864        O  0.85145206  0.99872943  0.84372195    -0.80100
O865        O  0.85216365  0.91173315  0.74951170    -0.78400
O866        O  0.85398789  0.95836770  0.87958764    -0.82600
O867        O  0.89383122  0.90957765  0.85328641    -0.77500
O868        O  0.82774156  0.99025913  0.78336044    -0.79200
O869        O  0.84836964  0.85649832  0.79479001    -0.82000
C870        C  0.91016176  0.93169883  0.84142893     0.98800
C871        C  0.85203604  0.98978798  0.87141772     1.06200
O872        O  0.84753201  0.92827177  0.81629974    -1.11000
O873        O  0.79579302  0.88867399  0.81917384    -0.73400
O874        O  0.80950555  0.91163827  0.86364512    -0.76900
O875        O  0.90206973  0.95775996  0.82553591    -0.77600
C876        C  0.79084627  0.89992249  0.84603252     0.97700
O877        O  0.85034144  0.85804798  0.84539768    -0.75500
O878        O  0.80208955  0.94256345  0.77530133    -0.80700
C879        C  0.87123771  0.93383547  0.74445872     1.00300
C880        C  0.80572953  0.97500583  0.77396099     1.06200
O881        O  0.87960125  0.95517905  0.76430661    -0.76400
C882        C  0.85193767  0.84176908  0.82026904     1.04500
Fe883      Fe  0.85164740  0.59996773  0.85432200     1.65800
Fe884      Fe  0.82668850  0.60969950  0.78287020     1.73200
Fe885      Fe  0.86421739  0.53755989  0.80146100     1.54400
O886        O  0.90194122  0.55246079  0.82236772    -0.80100
O887        O  0.80232603  0.56857560  0.77149544    -0.78400
O888        O  0.89375539  0.60130128  0.84928662    -0.82600
O889        O  0.85455612  0.55197323  0.87577911    -0.77500
O890        O  0.88005416  0.55515894  0.76096426    -0.79200
O891        O  0.79640176  0.62229004  0.81554810    -0.82000
C892        C  0.85182737  0.52066293  0.86761477     0.98800
C893        C  0.91006632  0.57893512  0.83775608     1.06200
O894        O  0.84772494  0.58218611  0.81256007    -1.11000
O895        O  0.84941740  0.65395211  0.79134684    -0.73400
O896        O  0.84976739  0.65219695  0.84194558    -0.76900
O897        O  0.85066504  0.51184019  0.83992082    -0.77600
C898        C  0.85216930  0.66860962  0.81699063     0.97700
O899        O  0.80954840  0.59784266  0.85961995    -0.75500
O900        O  0.85279034  0.59868657  0.74592603    -0.80700
C901        C  0.80576885  0.53610585  0.77003009     1.00300
C902        C  0.87186932  0.57652773  0.74105176     1.06200
O903        O  0.82770308  0.52059595  0.77935593    -0.76400
C904        C  0.79108524  0.61005211  0.84200809     1.04500
Fe905      Fe  0.89767258  0.41065945  0.60410074     1.65800
Fe906      Fe  0.92273552  0.40118759  0.53259410     1.73200
Fe907      Fe  0.88503706  0.47319352  0.55131393     1.54400
O908        O  0.84727308  0.45796498  0.57192283    -0.80100
O909        O  0.94679797  0.44251266  0.52100431    -0.78400
O910        O  0.85556009  0.40926172  0.59899971    -0.82600
O911        O  0.89471511  0.45855134  0.62569129    -0.77500
O912        O  0.86950029  0.45575120  0.51062274    -0.79200
O913        O  0.95318890  0.38903862  0.56520245    -0.82000
C914        C  0.89724721  0.48991083  0.61761840     0.98800
C915        C  0.83920188  0.43148962  0.58733956     1.06200
O916        O  0.90162090  0.42856482  0.56235192    -1.11000
O917        O  0.90038638  0.35666264  0.54113003    -0.73400
O918        O  0.89962638  0.35847862  0.59171443    -0.76900
O919        O  0.89826116  0.49885935  0.58994939    -0.77600
C920        C  0.89749064  0.34203460  0.56675886     0.97700
O921        O  0.93975955  0.41278896  0.60949249    -0.75500
O922        O  0.89640579  0.41178996  0.99577055    -0.80700
C923        C  0.94342243  0.47500682  0.51986394     1.00300
C924        C  0.87746426  0.43410891  0.99082912     1.06200
O925        O  0.92158650  0.49047775  0.52950083    -0.76400
C926        C  0.95833003  0.40091952  0.59183248     1.04500
Fe927      Fe  0.89789211  0.10040274  0.60802563     1.65800
Fe928      Fe  0.92334143  0.10968827  0.53655323     1.73200
Fe929      Fe  0.88508523  0.03802619  0.55498243     1.54400
O930        O  0.89806834  0.01199875  0.59353145    -0.80100
O931        O  0.89743157  0.09885355  0.99943124    -0.78400
O932        O  0.89541129  0.05228370  0.62945948    -0.82600
O933        O  0.85568834  0.10130898  0.60330298    -0.77500
O934        O  0.92157137  0.02066995  0.53305126    -0.79200
O935        O  0.90091759  0.15412802  0.54469940    -0.82000
C936        C  0.83931729  0.07915503  0.59155932     0.98800
C937        C  0.89739897  0.02087530  0.62124685     1.06200
O938        O  0.90190952  0.08249750  0.56625174    -1.11000
O939        O  0.95356456  0.12233496  0.56919540    -0.73400
O940        O  0.94002363  0.09884268  0.61349725    -0.76900
O941        O  0.84736881  0.05304717  0.57569276    -0.77600
C942        C  0.95862316  0.11076040  0.59591678     0.97700
O943        O  0.89931859  0.15266196  0.59532995    -0.75500
O944        O  0.94747286  0.06826942  0.52548359    -0.80700
C945        C  0.87814782  0.07701562  0.99447064     1.00300
C946        C  0.94370713  0.03586530  0.52390459     1.06200
O947        O  0.86957505  0.05591643  0.01440761    -0.76400
C948        C  0.89754650  0.16890236  0.57018983     1.04500
Fe949      Fe  0.64777198  0.41029183  0.61599376     1.65800
Fe950      Fe  0.67328372  0.40107900  0.68750363     1.73200
Fe951      Fe  0.63511705  0.47282308  0.66900996     1.54400
O952        O  0.64796298  0.49871944  0.63035238    -0.80100
O953        O  0.64723693  0.41174432  0.72455913    -0.78400
O954        O  0.64541714  0.45835962  0.59448336    -0.82600
O955        O  0.60557237  0.40956650  0.62077624    -0.77500
O956        O  0.67165184  0.49024816  0.69072259    -0.79200
O957        O  0.65102077  0.35649817  0.67928185    -0.82000
C958        C  0.58924170  0.43169387  0.63262494     0.98800
C959        C  0.64737598  0.48977924  0.60265591     1.06200
O960        O  0.65186796  0.42826470  0.65776893    -1.11000
O961        O  0.70360237  0.38865594  0.65489703    -0.73400
O962        O  0.68989808  0.41163098  0.61042871    -0.76900
O963        O  0.59733364  0.45775810  0.64851563    -0.77600
C964        C  0.70855378  0.39990841  0.62804128     0.97700
O965        O  0.64906202  0.35803991  0.62867301    -0.75500
O966        O  0.69731347  0.44255735  0.69876258    -0.80700
C967        C  0.62815506  0.43383835  0.72960602     1.00300
C968        C  0.69366782  0.47499816  0.70011420     1.06200
O969        O  0.61978320  0.45516736  0.70975150    -0.76400
C970        C  0.64745808  0.34176509  0.65380256     1.04500
Fe971      Fe  0.64773517  0.09995770  0.61976638     1.65800
Fe972      Fe  0.67269976  0.10969931  0.69121740     1.73200
Fe973      Fe  0.63517276  0.03755261  0.67263159     1.54400
O974        O  0.59744456  0.05245422  0.65173834    -0.80100
O975        O  0.69705713  0.06857446  0.70260240    -0.78400
O976        O  0.60562718  0.10128507  0.62480640    -0.82600
O977        O  0.64482865  0.05196292  0.59830976    -0.77500
O978        O  0.61934858  0.05514959  0.71313561    -0.79200
O979        O  0.70298961  0.12227357  0.65853961    -0.82000
C980        C  0.64755261  0.02065274  0.60647333     0.98800
C981        C  0.58931785  0.07892357  0.63634621     1.06200
O982        O  0.65166224  0.08218052  0.66152931    -1.11000
O983        O  0.64997833  0.15395590  0.68273541    -0.73400
O984        O  0.64961166  0.15218851  0.63213740    -0.76900
O985        O  0.64871226  0.01183011  0.63416679    -0.77600
C986        C  0.64721830  0.16860693  0.65709082     0.97700
O987        O  0.68983434  0.09783822  0.61446366    -0.75500
O988        O  0.64659323  0.09870389  0.72815960    -0.80700
C989        C  0.69362122  0.03610296  0.70405708     1.00300
C990        C  0.62752328  0.07653520  0.73304038     1.06200
O991        O  0.67169204  0.02058841  0.69472266    -0.76400
C992        C  0.70830098  0.11004077  0.63207595     1.04500
C993        C  0.64264951  0.30485589  0.65337664    -0.16900
C994        C  0.64076831  0.27356168  0.65381414     0.07100
C995        C  0.64071589  0.23679588  0.65496576     0.09000
C996        C  0.64251520  0.20551765  0.65608681    -0.17800
C997        C  0.56022245  0.08441641  0.63120521    -0.16900
C998        C  0.53682124  0.09260990  0.62453472     0.07100
C999        C  0.51003477  0.10291833  0.61504501     0.09000
C1000       C  0.98683716  0.10925023  0.60630328    -0.17800
C1001       C  0.73660299  0.10827402  0.62198550    -0.16900
C1002       C  0.75985720  0.10200831  0.61336554     0.07100
C1003       C  0.78675261  0.09213735  0.60384440     0.09000
C1004       C  0.81022315  0.08440753  0.59700797    -0.17800
C1005       C  0.81010835  0.42585810  0.59239267    -0.16900
C1006       C  0.78670286  0.41767703  0.59906140     0.07100
C1007       C  0.75991260  0.40748776  0.60864335     0.09000
C1008       C  0.73673108  0.40128728  0.61751289    -0.17800
C1009       C  0.98657911  0.40269402  0.60207854    -0.16900
C1010       C  0.50979515  0.40893315  0.61082311     0.07100
C1011       C  0.53666725  0.41876545  0.62042813     0.09000
C1012       C  0.56013972  0.42646642  0.62726185    -0.17800
C1013       C  0.89281460  0.20581206  0.57060200    -0.16900
C1014       C  0.89101732  0.23710452  0.57011452     0.07100
C1015       C  0.89104517  0.27385483  0.56890307     0.09000
C1016       C  0.89285856  0.30512261  0.56775417    -0.17800
C1017       C  0.85128005  0.49398699  0.89075140    -0.16900
C1018       C  0.85352663  0.47283480  0.91104457     0.07100
C1019       C  0.85905547  0.45131467  0.93664487     0.09000
C1020       C  0.86622701  0.43845166  0.96058745    -0.17800
C1021       C  0.89776679  0.51649183  0.64084644    -0.16900
C1022       C  0.89554600  0.53758091  0.66119772     0.07100
C1023       C  0.89008942  0.55909076  0.68682936     0.09000
C1024       C  0.88300309  0.57202033  0.71077821    -0.17800
C1025       C  0.71603628  0.49410553  0.71392694    -0.16900
C1026       C  0.73703435  0.50255380  0.72713750     0.07100
C1027       C  0.76219172  0.50902064  0.74300929     0.09000
C1028       C  0.78325285  0.51728875  0.75619049    -0.17800
C1029       C  0.71613971  0.01728868  0.71789330    -0.16900
C1030       C  0.73720159  0.00902213  0.73107295     0.07100
C1031       C  0.76235955  0.00255743  0.74694368     0.09000
C1032       C  0.78335862  0.99411130  0.76015254    -0.17800
C1033       C  0.85687205  0.70552061  0.81799152    -0.16900
C1034       C  0.85867216  0.73679905  0.81911004     0.07100
C1035       C  0.85862220  0.77356495  0.82025940     0.09000
C1036       C  0.85674362  0.80485953  0.82069585    -0.17800
C1037       C  0.88215347  0.93832707  0.71406432    -0.16900
C1038       C  0.88922628  0.95129237  0.69010917     0.07100
C1039       C  0.89495332  0.97290372  0.66458334     0.09000
C1040       C  0.89755795  0.99412592  0.64437185    -0.17800
C1041       C  0.85181823  0.01649642  0.89456620    -0.16900
C1042       C  0.85438989  0.03776705  0.91473599     0.07100
C1043       C  0.86011923  0.05947649  0.94018459     0.09000
C1044       C  0.86721989  0.07250497  0.96409582    -0.17800
C1045       C  0.96592548  0.49389099  0.50606719    -0.16900
C1046       C  0.98701771  0.50209757  0.99291279     0.07100
C1047       C  0.51223788  0.50841686  0.97710816     0.09000
C1048       C  0.53329959  0.51675738  0.96396295    -0.17800
C1049       C  0.51254623  0.60926196  0.86781304    -0.16900
C1050       C  0.98934795  0.60293068  0.85907171     0.07100
C1051       C  0.96256156  0.59262232  0.84957934     0.09000
C1052       C  0.93916115  0.58442827  0.84290424    -0.17800
C1053       C  0.68916604  0.58441344  0.87707921    -0.16900
C1054       C  0.71263509  0.59214689  0.87024015     0.07100
C1055       C  0.73952854  0.60202183  0.86071601     0.09000
C1056       C  0.76278225  0.60828841  0.85209522    -0.17800
C1057       C  0.63219181  0.57250313  0.50999000    -0.16900
C1058       C  0.63929643  0.55947437  0.53389886     0.07100
C1059       C  0.64502699  0.53776228  0.55934391     0.09000
C1060       C  0.64759747  0.51648892  0.57951036    -0.17800
C1061       C  0.61723958  0.43833964  0.75999998    -0.16900
C1062       C  0.61016578  0.45131147  0.78395282     0.07100
C1063       C  0.60443630  0.47292605  0.80947748     0.09000
C1064       C  0.60182955  0.49414667  0.82969117    -0.17800
C1065       C  0.76266964  0.90130500  0.85656428    -0.16900
C1066       C  0.73948808  0.90750519  0.86543479     0.07100
C1067       C  0.71269680  0.91769146  0.87501755     0.09000
C1068       C  0.68929056  0.92586964  0.88168703    -0.17800
C1069       C  0.51282310  0.90269730  0.87197026    -0.16900
C1070       C  0.98960796  0.90893352  0.86322218     0.07100
C1071       C  0.96273649  0.91876520  0.85361621     0.09000
C1072       C  0.93926409  0.92646780  0.84678496    -0.17800
C1073       C  0.60657836  0.70582301  0.90349608    -0.16900
C1074       C  0.60837466  0.73711573  0.90397613     0.07100
C1075       C  0.60834609  0.77386669  0.90517557     0.09000
C1076       C  0.60653321  0.80513487  0.90631641    -0.17800
C1077       C  0.60163432  0.01650842  0.83324251    -0.16900
C1078       C  0.60385256  0.03760024  0.81289447     0.07100
C1079       C  0.60930522  0.05911091  0.78726414     0.09000
C1080       C  0.61638939  0.07203721  0.76331412    -0.17800
C1081       C  0.63315001  0.93845327  0.51349076    -0.16900
C1082       C  0.64032021  0.95131201  0.53743601     0.07100
C1083       C  0.64584974  0.97282739  0.56303988     0.09000
C1084       C  0.64809781  0.99397707  0.58333563    -0.17800
C1085       C  0.53346188  0.99389765  0.96800068    -0.16900
C1086       C  0.51236934  0.00210392  0.98115522     0.07100
C1087       C  0.98715009  0.00842244  0.99696221     0.09000
C1088       C  0.96609083  0.01676260  0.51011273    -0.17800
loop_ 
_geom_bond_atom_site_label_1 
_geom_bond_atom_site_label_2 
_geom_bond_distance 
_geom_bond_site_symmetry_2 
_ccdc_geom_bond_type 
Fe1          O17   2.040       .  S
Fe1           O7   2.078       .  S
Fe1          O14   2.084       .  S
Fe1           O6   2.039       .  S
Fe1          O12   1.963       .  S
Fe2           O5   2.033       .  S
Fe2           O9   2.099       .  S
Fe2          O13   2.059       .  S
Fe2          O18   2.091       .  S
Fe2          O12   1.960       .  S
Fe3          O21   2.109       .  S
Fe3           O8   2.046       .  S
Fe3          O15   2.060       .  S
Fe3           O4   2.112       .  S
Fe3          O12   1.956       .  S
O4           C11   1.283       .  A
O5           C19   1.263       .  A
O6           C11   1.270       .  A
O7           C10   1.265       .  A
O8           C20   1.262       .  A
O9           C22   1.277       .  A
C10          O15   1.261       .  A
C10         C261   1.443   1_565  S
C11         C252   1.434       .  S
O13          C16   1.263       .  A
O14          C16   1.267       .  A
C16         C260   1.440       .  S
O17          C22   1.267       .  A
O18          C20   1.272       .  A
C19          O21   1.280       .  A
C19         C269   1.438       .  S
C20         C537   1.440       .  S
C22         C253   1.433       .  S
Fe23         O39   2.090       .  S
Fe23         O29   2.042       .  S
Fe23         O36   2.042       .  S
Fe23         O28   2.081       .  S
Fe23         O34   1.965       .  S
Fe24         O27   2.091       .  S
Fe24         O31   2.055       .  S
Fe24         O35   2.096       .  S
Fe24         O40   2.032       .  S
Fe24         O34   1.963       .  S
Fe25         O43   2.047       .  S
Fe25         O30   2.110       .  S
Fe25         O37   2.110       .  S
Fe25         O26   2.060       .  S
Fe25         O34   1.958       .  S
O26          C33   1.261       .  A
O27          C41   1.271       .  A
O28          C33   1.266       .  A
O29          C32   1.270       .  A
O30          C42   1.280       .  A
O31          C44   1.263       .  A
C32          O37   1.282       .  A
C32         C237   1.434       .  S
C33         C248   1.445       .  S
O35          C38   1.276       .  A
O36          C38   1.267       .  A
C38         C233   1.433       .  S
O39          C44   1.269       .  A
O40          C42   1.263       .  A
C41          O43   1.262       .  A
C41         C513   1.441       .  S
C42         C232   1.437       .  S
C44         C257   1.440       .  S
Fe45         O61   2.089       .  S
Fe45         O51   2.041       .  S
Fe45         O58   2.042       .  S
Fe45         O50   2.081       .  S
Fe45         O56   1.966       .  S
Fe46         O49   2.091       .  S
Fe46         O53   2.056       .  S
Fe46         O57   2.097       .  S
Fe46         O62   2.033       .  S
Fe46         O56   1.963       .  S
Fe47         O65   2.047       .  S
Fe47         O52   2.108       .  S
Fe47         O59   2.109       .  S
Fe47         O48   2.060       .  S
Fe47         O56   1.959       .  S
O48          C55   1.261       .  A
O49          C63   1.271       .  A
O50          C55   1.266       .  A
O51          C54   1.270       .  A
O52          C64   1.279       .  A
O53          C66   1.263       .  A
C54          O59   1.282       .  A
C54         C256   1.434       .  S
C55         C225   1.444   1_565  S
O57          C60   1.276       .  A
O58          C60   1.267       .  A
C60         C249   1.433       .  S
O61          C66   1.269       .  A
O62          C64   1.263       .  A
C63          O65   1.262       .  A
C63         C221   1.441       .  S
C64         C216   1.437       .  S
C66         C220   1.441       .  S
Fe67         O83   2.041       .  S
Fe67         O73   2.079       .  S
Fe67         O80   2.086       .  S
Fe67         O72   2.039       .  S
Fe67         O78   1.962       .  S
Fe68         O71   2.033       .  S
Fe68         O75   2.099       .  S
Fe68         O79   2.059       .  S
Fe68         O84   2.091       .  S
Fe68         O78   1.959       .  S
Fe69         O87   2.110       .  S
Fe69         O74   2.046       .  S
Fe69         O81   2.060       .  S
Fe69         O70   2.112       .  S
Fe69         O78   1.955       .  S
O70          C77   1.283       .  A
O71          C85   1.263       .  A
O72          C77   1.270       .  A
O73          C76   1.265       .  A
O74          C86   1.262       .  A
O75          C88   1.277       .  A
C76          O81   1.261       .  A
C76         C201   1.443       .  S
C77         C236   1.434       .  S
O79          C82   1.264       .  A
O80          C82   1.268       .  A
C82         C217   1.441       .  S
O83          C88   1.267       .  A
O84          C86   1.272       .  A
C85          O87   1.280       .  A
C85         C212   1.438       .  S
C86         C208   1.440       .  S
C88         C240   1.433       .  S
Fe89        O105   2.040       .  S
Fe89         O95   2.078       .  S
Fe89        O102   2.084       .  S
Fe89         O94   2.039       .  S
Fe89        O100   1.963       .  S
Fe90         O93   2.033       .  S
Fe90         O97   2.099       .  S
Fe90        O101   2.059       .  S
Fe90        O378   2.091   1_554  S
Fe90        O100   1.960       .  S
Fe91        O109   2.109       .  S
Fe91         O96   2.046       .  S
Fe91        O103   2.060       .  S
Fe91         O92   2.112       .  S
Fe91        O100   1.956       .  S
O92          C99   1.283       .  A
O93         C107   1.263       .  A
O94          C99   1.270       .  A
O95          C98   1.265       .  A
O96         C380   1.262   1_554  A
O97         C110   1.277       .  A
C98         O103   1.261       .  A
C98         C205   1.444       .  S
C99         C189   1.434       .  S
O101        C104   1.263       .  A
O102        C104   1.267       .  A
C104        C200   1.440       .  S
O105        C110   1.267       .  A
O106       Fe362   2.091       .  S
O106        C108   1.272       .  A
C107        O109   1.280       .  A
C107        C229   1.438       .  S
C108        O368   1.262       .  A
C108        C204   1.440       .  S
C110        C193   1.433       .  S
Fe111       O127   2.090       .  S
Fe111       O117   2.041       .  S
Fe111       O124   2.042       .  S
Fe111       O116   2.081       .  S
Fe111       O122   1.964       .  S
Fe112       O119   2.055       .  S
Fe112       O123   2.096       .  S
Fe112       O128   2.032       .  S
Fe112       O387   2.091   1_554  S
Fe112       O122   1.963       .  S
Fe113       O118   2.110       .  S
Fe113       O125   2.110       .  S
Fe113       O114   2.060       .  S
Fe113       O403   2.047       .  S
Fe113       O122   1.958       .  S
O114        C121   1.261       .  A
O115       Fe384   2.091       .  S
O115        C129   1.271       .  A
O116        C121   1.266       .  A
O117        C120   1.270       .  A
O118        C130   1.280       .  A
O119        C132   1.263       .  A
C120        O125   1.282       .  A
C120        C188   1.434       .  S
C121        C224   1.445   1_545  S
O123        C126   1.276       .  A
O124        C126   1.267       .  A
C126        C184   1.433       .  S
O127        C132   1.269       .  A
O128        C130   1.263       .  A
C129        O131   1.262       .  A
C129        C228   1.441       .  S
C130        C272   1.437       .  S
O131       Fe385   2.047       .  S
C132        C197   1.440       .  S
Fe133       O149   2.089       .  S
Fe133       O139   2.041       .  S
Fe133       O146   2.042       .  S
Fe133       O138   2.081       .  S
Fe133       O144   1.966       .  S
Fe134       O137   2.091       .  S
Fe134       O141   2.056       .  S
Fe134       O145   2.097       .  S
Fe134       O150   2.033       .  S
Fe134       O144   1.963       .  S
Fe135       O153   2.047       .  S
Fe135       O140   2.108       .  S
Fe135       O147   2.109       .  S
Fe135       O136   2.060       .  S
Fe135       O144   1.959       .  S
O136        C143   1.261       .  A
O137        C151   1.271       .  A
O138        C143   1.266       .  A
O139        C142   1.270       .  A
O140        C152   1.279       .  A
O141        C154   1.263       .  A
C142        O147   1.282       .  A
C142        C196   1.434       .  S
C143        C244   1.444       .  S
O145        C148   1.276       .  A
O146        C148   1.267       .  A
C148        C192   1.433       .  S
O149        C154   1.269       .  A
O150        C152   1.263       .  A
C151        O153   1.262       .  A
C151        C245   1.441       .  S
C152        C209   1.437       .  S
C154        C177   1.441       .  S
Fe155       O171   2.041       .  S
Fe155       O161   2.079       .  S
Fe155       O168   2.086       .  S
Fe155       O160   2.039       .  S
Fe155       O166   1.962       .  S
Fe156       O159   2.033       .  S
Fe156       O163   2.099       .  S
Fe156       O167   2.059       .  S
Fe156       O172   2.091       .  S
Fe156       O166   1.959       .  S
Fe157       O175   2.110       .  S
Fe157       O162   2.046       .  S
Fe157       O169   2.060       .  S
Fe157       O158   2.112       .  S
Fe157       O166   1.955       .  S
O158        C165   1.283       .  A
O159        C173   1.263       .  A
O160        C165   1.270       .  A
O161        C164   1.265       .  A
O162        C174   1.262       .  A
O163        C176   1.277       .  A
C164        O169   1.261       .  A
C164        C268   1.443   1_545  S
C165        C181   1.434       .  S
O167        C170   1.264       .  A
O168        C170   1.268       .  A
C170        C180   1.441       .  S
O171        C176   1.267       .  A
O172        C174   1.272       .  A
C173        O175   1.280       .  A
C173        C213   1.438       .  S
C174        C264   1.440       .  S
C176        C185   1.433       .  S
C177        C178   1.209       .  T
C178        C179   1.417       .  S
C179        C180   1.209       .  T
C181        C182   1.205       .  T
C182        C183   1.411       .  S
C183        C728   1.205   1_455  T
C184        C727   1.205       .  T
C185        C186   1.205       .  T
C186        C187   1.412       .  S
C187        C188   1.206       .  T
C189        C190   1.205       .  T
C190        C191   1.411       .  S
C191        C192   1.205       .  T
C193        C738   1.205       .  T
C194        C737   1.205   1_455  T
C194        C195   1.411       .  S
C195        C196   1.205       .  T
C197        C198   1.209       .  T
C198        C199   1.417       .  S
C199        C200   1.209       .  T
C201        C202   1.211       .  T
C202        C203   1.419       .  S
C203        C204   1.210       .  T
C205        C206   1.211       .  T
C206        C207   1.420       .  S
C207        C208   1.210       .  T
C209        C210   1.209       .  T
C210        C211   1.418       .  S
C211        C212   1.209       .  T
C213        C214   1.209       .  T
C214        C215   1.418       .  S
C215        C216   1.209   1_545  T
C217        C218   1.209       .  T
C218        C219   1.417       .  S
C219        C220   1.209       .  T
C221        C222   1.211       .  T
C222        C223   1.421       .  S
C223        C224   1.211       .  T
C225        C226   1.211       .  T
C226        C227   1.420       .  S
C227        C228   1.210       .  T
C229        C502   1.209   1_554  T
C230        C501   1.209       .  T
C230        C775   1.418       .  S
C231        C232   1.209       .  T
C231        C774   1.418   1_455  S
C233        C778   1.205   1_455  T
C234        C777   1.205       .  T
C234        C235   1.411       .  S
C235        C236   1.205       .  T
C237        C238   1.206       .  T
C238        C239   1.412       .  S
C239        C240   1.205       .  T
C241        C313   1.441   1_554  S
C241        C242   1.210       .  T
C242        C243   1.420       .  S
C243        C244   1.211       .  T
C245        C246   1.211       .  T
C246        C247   1.421       .  S
C247        C248   1.211       .  T
C249        C250   1.205       .  T
C250        C251   1.411       .  S
C251        C252   1.205       .  T
C253        C798   1.205   1_455  T
C254        C797   1.205       .  T
C254        C255   1.411       .  S
C255        C256   1.205       .  T
C257        C258   1.209       .  T
C258        C259   1.417       .  S
C259        C260   1.209       .  T
C261        C262   1.211       .  T
C262        C263   1.420       .  S
C263        C264   1.210       .  T
C265        C292   1.440   1_554  S
C265        C266   1.210       .  T
C266        C267   1.419       .  S
C267        C268   1.211       .  T
C269        C270   1.209   1_565  T
C270        C815   1.418   1_455  S
C271        C544   1.209       .  T
C271        C814   1.418       .  S
C272        C543   1.209   1_554  T
Fe273       O289   2.040       .  S
Fe273       O279   2.078       .  S
Fe273       O286   2.084       .  S
Fe273       O278   2.039       .  S
Fe273       O284   1.963       .  S
Fe274       O277   2.033       .  S
Fe274       O281   2.099       .  S
Fe274       O285   2.059       .  S
Fe274       O290   2.091       .  S
Fe274       O284   1.960       .  S
Fe275       O293   2.109       .  S
Fe275       O280   2.046       .  S
Fe275       O287   2.060       .  S
Fe275       O276   2.112       .  S
Fe275       O284   1.956       .  S
O276        C283   1.283       .  A
O277        C291   1.263       .  A
O278        C283   1.270       .  A
O279        C282   1.265       .  A
O280        C292   1.262       .  A
O281        C294   1.277       .  A
C282        O287   1.261       .  A
C282        C533   1.443   1_565  S
C283        C524   1.434       .  S
O285        C288   1.263       .  A
O286        C288   1.267       .  A
C288        C532   1.440       .  S
O289        C294   1.267       .  A
O290        C292   1.272       .  A
C291        O293   1.280       .  A
C291        C541   1.438       .  S
C294        C525   1.433       .  S
Fe295       O311   2.090       .  S
Fe295       O301   2.042       .  S
Fe295       O308   2.042       .  S
Fe295       O300   2.081       .  S
Fe295       O306   1.965       .  S
Fe296       O299   2.091       .  S
Fe296       O303   2.055       .  S
Fe296       O307   2.096       .  S
Fe296       O312   2.032       .  S
Fe296       O306   1.963       .  S
Fe297       O315   2.047       .  S
Fe297       O302   2.110       .  S
Fe297       O309   2.110       .  S
Fe297       O298   2.060       .  S
Fe297       O306   1.958       .  S
O298        C305   1.261       .  A
O299        C313   1.271       .  A
O300        C305   1.266       .  A
O301        C304   1.270       .  A
O302        C314   1.280       .  A
O303        C316   1.263       .  A
C304        O309   1.282       .  A
C304        C509   1.434       .  S
C305        C520   1.445       .  S
O307        C310   1.276       .  A
O308        C310   1.267       .  A
C310        C505   1.433       .  S
O311        C316   1.269       .  A
O312        C314   1.263       .  A
C313        O315   1.262       .  A
C314        C504   1.437       .  S
C316        C529   1.440       .  S
Fe317       O333   2.089       .  S
Fe317       O323   2.041       .  S
Fe317       O330   2.042       .  S
Fe317       O322   2.081       .  S
Fe317       O328   1.966       .  S
Fe318       O321   2.091       .  S
Fe318       O325   2.056       .  S
Fe318       O329   2.097       .  S
Fe318       O334   2.033       .  S
Fe318       O328   1.963       .  S
Fe319       O337   2.047       .  S
Fe319       O324   2.108       .  S
Fe319       O331   2.109       .  S
Fe319       O320   2.060       .  S
Fe319       O328   1.959       .  S
O320        C327   1.261       .  A
O321        C335   1.271       .  A
O322        C327   1.266       .  A
O323        C326   1.270       .  A
O324        C336   1.279       .  A
O325        C338   1.263       .  A
C326        O331   1.282       .  A
C326        C528   1.434       .  S
C327        C497   1.444   1_565  S
O329        C332   1.276       .  A
O330        C332   1.267       .  A
C332        C521   1.433       .  S
O333        C338   1.269       .  A
O334        C336   1.263       .  A
C335        O337   1.262       .  A
C335        C493   1.441       .  S
C336        C488   1.437       .  S
C338        C492   1.441       .  S
Fe339       O355   2.041       .  S
Fe339       O345   2.079       .  S
Fe339       O352   2.086       .  S
Fe339       O344   2.039       .  S
Fe339       O350   1.962       .  S
Fe340       O343   2.033       .  S
Fe340       O347   2.099       .  S
Fe340       O351   2.059       .  S
Fe340       O356   2.091       .  S
Fe340       O350   1.959       .  S
Fe341       O359   2.110       .  S
Fe341       O346   2.046       .  S
Fe341       O353   2.060       .  S
Fe341       O342   2.112       .  S
Fe341       O350   1.955       .  S
O342        C349   1.283       .  A
O343        C357   1.263       .  A
O344        C349   1.270       .  A
O345        C348   1.265       .  A
O346        C358   1.262       .  A
O347        C360   1.277       .  A
C348        O353   1.261       .  A
C348        C473   1.443       .  S
C349        C508   1.434       .  S
O351        C354   1.264       .  A
O352        C354   1.268       .  A
C354        C489   1.441       .  S
O355        C360   1.267       .  A
O356        C358   1.272       .  A
C357        O359   1.280       .  A
C357        C484   1.438       .  S
C358        C480   1.440       .  S
C360        C512   1.433       .  S
Fe361       O377   2.040       .  S
Fe361       O367   2.078       .  S
Fe361       O374   2.084       .  S
Fe361       O366   2.039       .  S
Fe361       O372   1.963       .  S
Fe362       O365   2.033       .  S
Fe362       O369   2.099       .  S
Fe362       O373   2.059       .  S
Fe362       O372   1.960       .  S
Fe363       O381   2.109       .  S
Fe363       O368   2.046       .  S
Fe363       O375   2.060       .  S
Fe363       O364   2.112       .  S
Fe363       O372   1.956       .  S
O364        C371   1.283       .  A
O365        C379   1.263       .  A
O366        C371   1.270       .  A
O367        C370   1.265       .  A
O369        C382   1.277       .  A
C370        O375   1.261       .  A
C370        C477   1.444       .  S
C371        C461   1.434       .  S
O373        C376   1.263       .  A
O374        C376   1.267       .  A
C376        C472   1.440       .  S
O377        C382   1.267       .  A
O378        C380   1.272       .  A
C379        O381   1.280       .  A
C379        C501   1.438       .  S
C380        C476   1.440       .  S
C382        C465   1.433       .  S
Fe383       O399   2.090       .  S
Fe383       O389   2.041       .  S
Fe383       O396   2.042       .  S
Fe383       O388   2.081       .  S
Fe383       O394   1.964       .  S
Fe384       O391   2.055       .  S
Fe384       O395   2.096       .  S
Fe384       O400   2.032       .  S
Fe384       O394   1.963       .  S
Fe385       O390   2.110       .  S
Fe385       O397   2.110       .  S
Fe385       O386   2.060       .  S
Fe385       O394   1.958       .  S
O386        C393   1.261       .  A
O387        C401   1.271       .  A
O388        C393   1.266       .  A
O389        C392   1.270       .  A
O390        C402   1.280       .  A
O391        C404   1.263       .  A
C392        O397   1.282       .  A
C392        C460   1.434       .  S
C393        C496   1.445   1_545  S
O395        C398   1.276       .  A
O396        C398   1.267       .  A
C398        C456   1.433       .  S
O399        C404   1.269       .  A
O400        C402   1.263       .  A
C401        O403   1.262   1_556  A
C401        C500   1.441       .  S
C402        C544   1.437       .  S
C404        C469   1.440       .  S
Fe405       O421   2.089       .  S
Fe405       O411   2.041       .  S
Fe405       O418   2.042       .  S
Fe405       O410   2.081       .  S
Fe405       O416   1.966       .  S
Fe406       O409   2.091       .  S
Fe406       O413   2.056       .  S
Fe406       O417   2.097       .  S
Fe406       O422   2.033       .  S
Fe406       O416   1.963       .  S
Fe407       O425   2.047       .  S
Fe407       O412   2.108       .  S
Fe407       O419   2.109       .  S
Fe407       O408   2.060       .  S
Fe407       O416   1.959       .  S
O408        C415   1.261       .  A
O409        C423   1.271       .  A
O410        C415   1.266       .  A
O411        C414   1.270       .  A
O412        C424   1.279       .  A
O413        C426   1.263       .  A
C414        O419   1.282       .  A
C414        C468   1.434       .  S
C415        C516   1.444       .  S
O417        C420   1.276       .  A
O418        C420   1.267       .  A
C420        C464   1.433       .  S
O421        C426   1.269       .  A
O422        C424   1.263       .  A
C423        O425   1.262       .  A
C423        C517   1.441       .  S
C424        C481   1.437       .  S
C426        C449   1.441       .  S
Fe427       O443   2.041       .  S
Fe427       O433   2.079       .  S
Fe427       O440   2.086       .  S
Fe427       O432   2.039       .  S
Fe427       O438   1.962       .  S
Fe428       O431   2.033       .  S
Fe428       O435   2.099       .  S
Fe428       O439   2.059       .  S
Fe428       O444   2.091       .  S
Fe428       O438   1.959       .  S
Fe429       O447   2.110       .  S
Fe429       O434   2.046       .  S
Fe429       O441   2.060       .  S
Fe429       O430   2.112       .  S
Fe429       O438   1.955       .  S
O430        C437   1.283       .  A
O431        C445   1.263       .  A
O432        C437   1.270       .  A
O433        C436   1.265       .  A
O434        C446   1.262       .  A
O435        C448   1.277       .  A
C436        O441   1.261       .  A
C436        C540   1.443   1_545  S
C437        C453   1.434       .  S
O439        C442   1.264       .  A
O440        C442   1.268       .  A
C442        C452   1.441       .  S
O443        C448   1.267       .  A
O444        C446   1.272       .  A
C445        O447   1.280       .  A
C445        C485   1.438       .  S
C446        C536   1.440       .  S
C448        C457   1.433       .  S
C449        C450   1.209       .  T
C450        C451   1.417       .  S
C451        C452   1.209       .  T
C453        C454   1.205       .  T
C454        C455   1.411       .  S
C455       C1000   1.205   1_455  T
C456        C999   1.205       .  T
C457        C458   1.205       .  T
C458        C459   1.412       .  S
C459        C460   1.206       .  T
C461        C462   1.205       .  T
C462        C463   1.411       .  S
C463        C464   1.205       .  T
C465       C1010   1.205       .  T
C466       C1009   1.205   1_455  T
C466        C467   1.411       .  S
C467        C468   1.205       .  T
C469        C470   1.209       .  T
C470        C471   1.417       .  S
C471        C472   1.209       .  T
C473        C474   1.211       .  T
C474        C475   1.419       .  S
C475        C476   1.210       .  T
C477        C478   1.211       .  T
C478        C479   1.420       .  S
C479        C480   1.210       .  T
C481        C482   1.209       .  T
C482        C483   1.418       .  S
C483        C484   1.209       .  T
C485        C486   1.209       .  T
C486        C487   1.418       .  S
C487        C488   1.209   1_545  T
C489        C490   1.209       .  T
C490        C491   1.417       .  S
C491        C492   1.209       .  T
C493        C494   1.211       .  T
C494        C495   1.421       .  S
C495        C496   1.211       .  T
C497        C498   1.211       .  T
C498        C499   1.420       .  S
C499        C500   1.210       .  T
C502       C1047   1.418       .  S
C503        C504   1.209       .  T
C503       C1046   1.418   1_455  S
C505       C1050   1.205   1_455  T
C506       C1049   1.205       .  T
C506        C507   1.411       .  S
C507        C508   1.205       .  T
C509        C510   1.206       .  T
C510        C511   1.412       .  S
C511        C512   1.205       .  T
C513        C514   1.210       .  T
C514        C515   1.420       .  S
C515        C516   1.211       .  T
C517        C518   1.211       .  T
C518        C519   1.421       .  S
C519        C520   1.211       .  T
C521        C522   1.205       .  T
C522        C523   1.411       .  S
C523        C524   1.205       .  T
C525       C1070   1.205   1_455  T
C526       C1069   1.205       .  T
C526        C527   1.411       .  S
C527        C528   1.205       .  T
C529        C530   1.209       .  T
C530        C531   1.417       .  S
C531        C532   1.209       .  T
C533        C534   1.211       .  T
C534        C535   1.420       .  S
C535        C536   1.210       .  T
C537        C538   1.210       .  T
C538        C539   1.419       .  S
C539        C540   1.211       .  T
C541        C542   1.209   1_565  T
C542       C1087   1.418   1_455  S
C543       C1086   1.418       .  S
Fe545       O561   2.040       .  S
Fe545       O551   2.078       .  S
Fe545       O558   2.084       .  S
Fe545       O550   2.039       .  S
Fe545       O556   1.963       .  S
Fe546       O549   2.033       .  S
Fe546       O553   2.099       .  S
Fe546       O557   2.059       .  S
Fe546       O562   2.091       .  S
Fe546       O556   1.960       .  S
Fe547       O565   2.109       .  S
Fe547       O552   2.046       .  S
Fe547       O559   2.060       .  S
Fe547       O548   2.112       .  S
Fe547       O556   1.956       .  S
O548        C555   1.283       .  A
O549        C563   1.263       .  A
O550        C555   1.270       .  A
O551        C554   1.265       .  A
O552        C564   1.262       .  A
O553        C566   1.277       .  A
C554        O559   1.261       .  A
C554        C805   1.443   1_565  S
C555        C796   1.434       .  S
O557        C560   1.263       .  A
O558        C560   1.267       .  A
C560        C804   1.440       .  S
O561        C566   1.267       .  A
O562        C564   1.272       .  A
C563        O565   1.280       .  A
C563        C813   1.438       .  S
C564       C1081   1.440       .  S
C566        C797   1.433       .  S
Fe567       O583   2.090       .  S
Fe567       O573   2.042       .  S
Fe567       O580   2.042       .  S
Fe567       O572   2.081       .  S
Fe567       O578   1.965       .  S
Fe568       O571   2.091       .  S
Fe568       O575   2.055       .  S
Fe568       O579   2.096       .  S
Fe568       O584   2.032       .  S
Fe568       O578   1.963       .  S
Fe569       O587   2.047       .  S
Fe569       O574   2.110       .  S
Fe569       O581   2.110       .  S
Fe569       O570   2.060       .  S
Fe569       O578   1.958       .  S
O570        C577   1.261       .  A
O571        C585   1.271       .  A
O572        C577   1.266       .  A
O573        C576   1.270       .  A
O574        C586   1.280       .  A
O575        C588   1.263       .  A
C576        O581   1.282       .  A
C576        C781   1.434       .  S
C577        C792   1.445       .  S
O579        C582   1.276       .  A
O580        C582   1.267       .  A
C582        C777   1.433       .  S
O583        C588   1.269       .  A
O584        C586   1.263       .  A
C585        O587   1.262       .  A
C585       C1057   1.441       .  S
C586        C776   1.437       .  S
C588        C801   1.440       .  S
Fe589       O605   2.089       .  S
Fe589       O595   2.041       .  S
Fe589       O602   2.042       .  S
Fe589       O594   2.081       .  S
Fe589       O600   1.966       .  S
Fe590       O593   2.091       .  S
Fe590       O597   2.056       .  S
Fe590       O601   2.097       .  S
Fe590       O606   2.033       .  S
Fe590       O600   1.963       .  S
Fe591       O609   2.047       .  S
Fe591       O596   2.108       .  S
Fe591       O603   2.109       .  S
Fe591       O592   2.060       .  S
Fe591       O600   1.959       .  S
O592        C599   1.261       .  A
O593        C607   1.271       .  A
O594        C599   1.266       .  A
O595        C598   1.270       .  A
O596        C608   1.279       .  A
O597        C610   1.263       .  A
C598        O603   1.282       .  A
C598        C800   1.434       .  S
C599        C769   1.444   1_565  S
O601        C604   1.276       .  A
O602        C604   1.267       .  A
C604        C793   1.433       .  S
O605        C610   1.269       .  A
O606        C608   1.263       .  A
C607        O609   1.262       .  A
C607        C765   1.441       .  S
C608        C760   1.437       .  S
C610        C764   1.441       .  S
Fe611       O627   2.041       .  S
Fe611       O617   2.079       .  S
Fe611       O624   2.086       .  S
Fe611       O616   2.039       .  S
Fe611       O622   1.962       .  S
Fe612       O615   2.033       .  S
Fe612       O619   2.099       .  S
Fe612       O623   2.059       .  S
Fe612       O628   2.091       .  S
Fe612       O622   1.959       .  S
Fe613       O631   2.110       .  S
Fe613       O618   2.046       .  S
Fe613       O625   2.060       .  S
Fe613       O614   2.112       .  S
Fe613       O622   1.955       .  S
O614        C621   1.283       .  A
O615        C629   1.263       .  A
O616        C621   1.270       .  A
O617        C620   1.265       .  A
O618        C630   1.262       .  A
O619        C632   1.277       .  A
C620        O625   1.261       .  A
C620        C745   1.443       .  S
C621        C780   1.434       .  S
O623        C626   1.264       .  A
O624        C626   1.268       .  A
C626        C761   1.441       .  S
O627        C632   1.267       .  A
O628        C630   1.272       .  A
C629        O631   1.280       .  A
C629        C756   1.438       .  S
C630        C752   1.440       .  S
C632        C784   1.433       .  S
Fe633       O649   2.040       .  S
Fe633       O639   2.078       .  S
Fe633       O646   2.084       .  S
Fe633       O638   2.039       .  S
Fe633       O644   1.963       .  S
Fe634       O637   2.033       .  S
Fe634       O641   2.099       .  S
Fe634       O645   2.059       .  S
Fe634       O922   2.091   1_554  S
Fe634       O644   1.960       .  S
Fe635       O653   2.109       .  S
Fe635       O640   2.046       .  S
Fe635       O647   2.060       .  S
Fe635       O636   2.112       .  S
Fe635       O644   1.956       .  S
O636        C643   1.283       .  A
O637        C651   1.263       .  A
O638        C643   1.270       .  A
O639        C642   1.265       .  A
O640        C924   1.262   1_554  A
O641        C654   1.277       .  A
C642        O647   1.261       .  A
C642        C749   1.444       .  S
C643        C733   1.434       .  S
O645        C648   1.263       .  A
O646        C648   1.267       .  A
C648        C744   1.440       .  S
O649        C654   1.267       .  A
O650       Fe906   2.091       .  S
O650        C652   1.272       .  A
C651        O653   1.280       .  A
C651        C773   1.438       .  S
C652        O912   1.262       .  A
C652        C748   1.440       .  S
C654        C737   1.433       .  S
Fe655       O671   2.090       .  S
Fe655       O661   2.041       .  S
Fe655       O668   2.042       .  S
Fe655       O660   2.081       .  S
Fe655       O666   1.964       .  S
Fe656       O931   2.091   1_554  S
Fe656       O663   2.055       .  S
Fe656       O667   2.096       .  S
Fe656       O672   2.032       .  S
Fe656       O666   1.963       .  S
Fe657       O947   2.047       .  S
Fe657       O662   2.110       .  S
Fe657       O669   2.110       .  S
Fe657       O658   2.060       .  S
Fe657       O666   1.958       .  S
O658        C665   1.261       .  A
O659       Fe928   2.091       .  S
O659        C673   1.271       .  A
O660        C665   1.266       .  A
O661        C664   1.270       .  A
O662        C674   1.280       .  A
O663        C676   1.263       .  A
C664        O669   1.282       .  A
C664        C732   1.434       .  S
C665        C768   1.445   1_545  S
O667        C670   1.276       .  A
O668        C670   1.267       .  A
C670        C728   1.433       .  S
O671        C676   1.269       .  A
O672        C674   1.263       .  A
C673        O675   1.262       .  A
C673        C772   1.441       .  S
C674        C816   1.437       .  S
O675       Fe929   2.047       .  S
C676        C741   1.440       .  S
Fe677       O693   2.089       .  S
Fe677       O683   2.041       .  S
Fe677       O690   2.042       .  S
Fe677       O682   2.081       .  S
Fe677       O688   1.966       .  S
Fe678       O681   2.091       .  S
Fe678       O685   2.056       .  S
Fe678       O689   2.097       .  S
Fe678       O694   2.033       .  S
Fe678       O688   1.963       .  S
Fe679       O697   2.047       .  S
Fe679       O684   2.108       .  S
Fe679       O691   2.109       .  S
Fe679       O680   2.060       .  S
Fe679       O688   1.959       .  S
O680        C687   1.261       .  A
O681        C695   1.271       .  A
O682        C687   1.266       .  A
O683        C686   1.270       .  A
O684        C696   1.279       .  A
O685        C698   1.263       .  A
C686        O691   1.282       .  A
C686        C740   1.434       .  S
C687        C788   1.444       .  S
O689        C692   1.276       .  A
O690        C692   1.267       .  A
C692        C736   1.433       .  S
O693        C698   1.269       .  A
O694        C696   1.263       .  A
C695        O697   1.262       .  A
C695        C789   1.441       .  S
C696        C753   1.437       .  S
C698        C721   1.441       .  S
Fe699       O715   2.041       .  S
Fe699       O705   2.079       .  S
Fe699       O712   2.086       .  S
Fe699       O704   2.039       .  S
Fe699       O710   1.962       .  S
Fe700       O703   2.033       .  S
Fe700       O707   2.099       .  S
Fe700       O711   2.059       .  S
Fe700       O716   2.091       .  S
Fe700       O710   1.959       .  S
Fe701       O719   2.110       .  S
Fe701       O706   2.046       .  S
Fe701       O713   2.060       .  S
Fe701       O702   2.112       .  S
Fe701       O710   1.955       .  S
O702        C709   1.283       .  A
O703        C717   1.263       .  A
O704        C709   1.270       .  A
O705        C708   1.265       .  A
O706        C718   1.262       .  A
O707        C720   1.277       .  A
C708        O713   1.261       .  A
C708        C812   1.443   1_545  S
C709        C725   1.434       .  S
O711        C714   1.264       .  A
O712        C714   1.268       .  A
C714        C724   1.441       .  S
O715        C720   1.267       .  A
O716        C718   1.272       .  A
C717        O719   1.280       .  A
C717        C757   1.438       .  S
C718        C808   1.440       .  S
C720        C729   1.433       .  S
C721        C722   1.209       .  T
C722        C723   1.417       .  S
C723        C724   1.209       .  T
C725        C726   1.205       .  T
C726        C727   1.411       .  S
C729        C730   1.205       .  T
C730        C731   1.412       .  S
C731        C732   1.206       .  T
C733        C734   1.205       .  T
C734        C735   1.411       .  S
C735        C736   1.205       .  T
C738        C739   1.411       .  S
C739        C740   1.205       .  T
C741        C742   1.209       .  T
C742        C743   1.417       .  S
C743        C744   1.209       .  T
C745        C746   1.211       .  T
C746        C747   1.419       .  S
C747        C748   1.210       .  T
C749        C750   1.211       .  T
C750        C751   1.420       .  S
C751        C752   1.210       .  T
C753        C754   1.209       .  T
C754        C755   1.418       .  S
C755        C756   1.209       .  T
C757        C758   1.209       .  T
C758        C759   1.418       .  S
C759        C760   1.209   1_545  T
C761        C762   1.209       .  T
C762        C763   1.417       .  S
C763        C764   1.209       .  T
C765        C766   1.211       .  T
C766        C767   1.421       .  S
C767        C768   1.211       .  T
C769        C770   1.211       .  T
C770        C771   1.420       .  S
C771        C772   1.210       .  T
C773       C1046   1.209   1_554  T
C774       C1045   1.209       .  T
C775        C776   1.209       .  T
C778        C779   1.411       .  S
C779        C780   1.205       .  T
C781        C782   1.206       .  T
C782        C783   1.412       .  S
C783        C784   1.205       .  T
C785        C857   1.441   1_554  S
C785        C786   1.210       .  T
C786        C787   1.420       .  S
C787        C788   1.211       .  T
C789        C790   1.211       .  T
C790        C791   1.421       .  S
C791        C792   1.211       .  T
C793        C794   1.205       .  T
C794        C795   1.411       .  S
C795        C796   1.205       .  T
C798        C799   1.411       .  S
C799        C800   1.205       .  T
C801        C802   1.209       .  T
C802        C803   1.417       .  S
C803        C804   1.209       .  T
C805        C806   1.211       .  T
C806        C807   1.420       .  S
C807        C808   1.210       .  T
C809        C836   1.440   1_554  S
C809        C810   1.210       .  T
C810        C811   1.419       .  S
C811        C812   1.211       .  T
C813        C814   1.209   1_565  T
C815       C1088   1.209       .  T
C816       C1087   1.209   1_554  T
Fe817       O833   2.040       .  S
Fe817       O823   2.078       .  S
Fe817       O830   2.084       .  S
Fe817       O822   2.039       .  S
Fe817       O828   1.963       .  S
Fe818       O821   2.033       .  S
Fe818       O825   2.099       .  S
Fe818       O829   2.059       .  S
Fe818       O834   2.091       .  S
Fe818       O828   1.960       .  S
Fe819       O837   2.109       .  S
Fe819       O824   2.046       .  S
Fe819       O831   2.060       .  S
Fe819       O820   2.112       .  S
Fe819       O828   1.956       .  S
O820        C827   1.283       .  A
O821        C835   1.263       .  A
O822        C827   1.270       .  A
O823        C826   1.265       .  A
O824        C836   1.262       .  A
O825        C838   1.277       .  A
C826        O831   1.261       .  A
C826       C1077   1.443   1_565  S
C827       C1068   1.434       .  S
O829        C832   1.263       .  A
O830        C832   1.267       .  A
C832       C1076   1.440       .  S
O833        C838   1.267       .  A
O834        C836   1.272       .  A
C835        O837   1.280       .  A
C835       C1085   1.438       .  S
C838       C1069   1.433       .  S
Fe839       O855   2.090       .  S
Fe839       O845   2.042       .  S
Fe839       O852   2.042       .  S
Fe839       O844   2.081       .  S
Fe839       O850   1.965       .  S
Fe840       O843   2.091       .  S
Fe840       O847   2.055       .  S
Fe840       O851   2.096       .  S
Fe840       O856   2.032       .  S
Fe840       O850   1.963       .  S
Fe841       O859   2.047       .  S
Fe841       O846   2.110       .  S
Fe841       O853   2.110       .  S
Fe841       O842   2.060       .  S
Fe841       O850   1.958       .  S
O842        C849   1.261       .  A
O843        C857   1.271       .  A
O844        C849   1.266       .  A
O845        C848   1.270       .  A
O846        C858   1.280       .  A
O847        C860   1.263       .  A
C848        O853   1.282       .  A
C848       C1053   1.434       .  S
C849       C1064   1.445       .  S
O851        C854   1.276       .  A
O852        C854   1.267       .  A
C854       C1049   1.433       .  S
O855        C860   1.269       .  A
O856        C858   1.263       .  A
C857        O859   1.262       .  A
C858       C1048   1.437       .  S
C860       C1073   1.440       .  S
Fe861       O877   2.089       .  S
Fe861       O867   2.041       .  S
Fe861       O874   2.042       .  S
Fe861       O866   2.081       .  S
Fe861       O872   1.966       .  S
Fe862       O865   2.091       .  S
Fe862       O869   2.056       .  S
Fe862       O873   2.097       .  S
Fe862       O878   2.033       .  S
Fe862       O872   1.963       .  S
Fe863       O881   2.047       .  S
Fe863       O868   2.108       .  S
Fe863       O875   2.109       .  S
Fe863       O864   2.060       .  S
Fe863       O872   1.959       .  S
O864        C871   1.261       .  A
O865        C879   1.271       .  A
O866        C871   1.266       .  A
O867        C870   1.270       .  A
O868        C880   1.279       .  A
O869        C882   1.263       .  A
C870        O875   1.282       .  A
C870       C1072   1.434       .  S
C871       C1041   1.444   1_565  S
O873        C876   1.276       .  A
O874        C876   1.267       .  A
C876       C1065   1.433       .  S
O877        C882   1.269       .  A
O878        C880   1.263       .  A
C879        O881   1.262       .  A
C879       C1037   1.441       .  S
C880       C1032   1.437       .  S
C882       C1036   1.441       .  S
Fe883       O899   2.041       .  S
Fe883       O889   2.079       .  S
Fe883       O896   2.086       .  S
Fe883       O888   2.039       .  S
Fe883       O894   1.962       .  S
Fe884       O887   2.033       .  S
Fe884       O891   2.099       .  S
Fe884       O895   2.059       .  S
Fe884       O900   2.091       .  S
Fe884       O894   1.959       .  S
Fe885       O903   2.110       .  S
Fe885       O890   2.046       .  S
Fe885       O897   2.060       .  S
Fe885       O886   2.112       .  S
Fe885       O894   1.955       .  S
O886        C893   1.283       .  A
O887        C901   1.263       .  A
O888        C893   1.270       .  A
O889        C892   1.265       .  A
O890        C902   1.262       .  A
O891        C904   1.277       .  A
C892        O897   1.261       .  A
C892       C1017   1.443       .  S
C893       C1052   1.434       .  S
O895        C898   1.264       .  A
O896        C898   1.268       .  A
C898       C1033   1.441       .  S
O899        C904   1.267       .  A
O900        C902   1.272       .  A
C901        O903   1.280       .  A
C901       C1028   1.438       .  S
C902       C1024   1.440       .  S
C904       C1056   1.433       .  S
Fe905       O921   2.040       .  S
Fe905       O911   2.078       .  S
Fe905       O918   2.084       .  S
Fe905       O910   2.039       .  S
Fe905       O916   1.963       .  S
Fe906       O909   2.033       .  S
Fe906       O913   2.099       .  S
Fe906       O917   2.059       .  S
Fe906       O916   1.960       .  S
Fe907       O925   2.109       .  S
Fe907       O912   2.046       .  S
Fe907       O919   2.060       .  S
Fe907       O908   2.112       .  S
Fe907       O916   1.956       .  S
O908        C915   1.283       .  A
O909        C923   1.263       .  A
O910        C915   1.270       .  A
O911        C914   1.265       .  A
O913        C926   1.277       .  A
C914        O919   1.261       .  A
C914       C1021   1.444       .  S
C915       C1005   1.434       .  S
O917        C920   1.263       .  A
O918        C920   1.267       .  A
C920       C1016   1.440       .  S
O921        C926   1.267       .  A
O922        C924   1.272       .  A
C923        O925   1.280       .  A
C923       C1045   1.438       .  S
C924       C1020   1.440       .  S
C926       C1009   1.433       .  S
Fe927       O943   2.090       .  S
Fe927       O933   2.041       .  S
Fe927       O940   2.042       .  S
Fe927       O932   2.081       .  S
Fe927       O938   1.964       .  S
Fe928       O935   2.055       .  S
Fe928       O939   2.096       .  S
Fe928       O944   2.032       .  S
Fe928       O938   1.963       .  S
Fe929       O934   2.110       .  S
Fe929       O941   2.110       .  S
Fe929       O930   2.060       .  S
Fe929       O938   1.958       .  S
O930        C937   1.261       .  A
O931        C945   1.271       .  A
O932        C937   1.266       .  A
O933        C936   1.270       .  A
O934        C946   1.280       .  A
O935        C948   1.263       .  A
C936        O941   1.282       .  A
C936       C1004   1.434       .  S
C937       C1040   1.445   1_545  S
O939        C942   1.276       .  A
O940        C942   1.267       .  A
C942       C1000   1.433       .  S
O943        C948   1.269       .  A
O944        C946   1.263       .  A
C945        O947   1.262   1_556  A
C945       C1044   1.441       .  S
C946       C1088   1.437       .  S
C948       C1013   1.440       .  S
Fe949       O965   2.089       .  S
Fe949       O955   2.041       .  S
Fe949       O962   2.042       .  S
Fe949       O954   2.081       .  S
Fe949       O960   1.966       .  S
Fe950       O953   2.091       .  S
Fe950       O957   2.056       .  S
Fe950       O961   2.097       .  S
Fe950       O966   2.033       .  S
Fe950       O960   1.963       .  S
Fe951       O969   2.047       .  S
Fe951       O956   2.108       .  S
Fe951       O963   2.109       .  S
Fe951       O952   2.060       .  S
Fe951       O960   1.959       .  S
O952        C959   1.261       .  A
O953        C967   1.271       .  A
O954        C959   1.266       .  A
O955        C958   1.270       .  A
O956        C968   1.279       .  A
O957        C970   1.263       .  A
C958        O963   1.282       .  A
C958       C1012   1.434       .  S
C959       C1060   1.444       .  S
O961        C964   1.276       .  A
O962        C964   1.267       .  A
C964       C1008   1.433       .  S
O965        C970   1.269       .  A
O966        C968   1.263       .  A
C967        O969   1.262       .  A
C967       C1061   1.441       .  S
C968       C1025   1.437       .  S
C970        C993   1.441       .  S
Fe971       O987   2.041       .  S
Fe971       O977   2.079       .  S
Fe971       O984   2.086       .  S
Fe971       O976   2.039       .  S
Fe971       O982   1.962       .  S
Fe972       O975   2.033       .  S
Fe972       O979   2.099       .  S
Fe972       O983   2.059       .  S
Fe972       O988   2.091       .  S
Fe972       O982   1.959       .  S
Fe973       O991   2.110       .  S
Fe973       O978   2.046       .  S
Fe973       O985   2.060       .  S
Fe973       O974   2.112       .  S
Fe973       O982   1.955       .  S
O974        C981   1.283       .  A
O975        C989   1.263       .  A
O976        C981   1.270       .  A
O977        C980   1.265       .  A
O978        C990   1.262       .  A
O979        C992   1.277       .  A
C980        O985   1.261       .  A
C980       C1084   1.443   1_545  S
C981        C997   1.434       .  S
O983        C986   1.264       .  A
O984        C986   1.268       .  A
C986        C996   1.441       .  S
O987        C992   1.267       .  A
O988        C990   1.272       .  A
C989        O991   1.280       .  A
C989       C1029   1.438       .  S
C990       C1080   1.440       .  S
C992       C1001   1.433       .  S
C993        C994   1.209       .  T
C994        C995   1.417       .  S
C995        C996   1.209       .  T
C997        C998   1.205       .  T
C998        C999   1.411       .  S
C1001      C1002   1.205       .  T
C1002      C1003   1.412       .  S
C1003      C1004   1.206       .  T
C1005      C1006   1.205       .  T
C1006      C1007   1.411       .  S
C1007      C1008   1.205       .  T
C1010      C1011   1.411       .  S
C1011      C1012   1.205       .  T
C1013      C1014   1.209       .  T
C1014      C1015   1.417       .  S
C1015      C1016   1.209       .  T
C1017      C1018   1.211       .  T
C1018      C1019   1.419       .  S
C1019      C1020   1.210       .  T
C1021      C1022   1.211       .  T
C1022      C1023   1.420       .  S
C1023      C1024   1.210       .  T
C1025      C1026   1.209       .  T
C1026      C1027   1.418       .  S
C1027      C1028   1.209       .  T
C1029      C1030   1.209       .  T
C1030      C1031   1.418       .  S
C1031      C1032   1.209   1_545  T
C1033      C1034   1.209       .  T
C1034      C1035   1.417       .  S
C1035      C1036   1.209       .  T
C1037      C1038   1.211       .  T
C1038      C1039   1.421       .  S
C1039      C1040   1.211       .  T
C1041      C1042   1.211       .  T
C1042      C1043   1.420       .  S
C1043      C1044   1.210       .  T
C1047      C1048   1.209       .  T
C1050      C1051   1.411       .  S
C1051      C1052   1.205       .  T
C1053      C1054   1.206       .  T
C1054      C1055   1.412       .  S
C1055      C1056   1.205       .  T
C1057      C1058   1.210       .  T
C1058      C1059   1.420       .  S
C1059      C1060   1.211       .  T
C1061      C1062   1.211       .  T
C1062      C1063   1.421       .  S
C1063      C1064   1.211       .  T
C1065      C1066   1.205       .  T
C1066      C1067   1.411       .  S
C1067      C1068   1.205       .  T
C1070      C1071   1.411       .  S
C1071      C1072   1.205       .  T
C1073      C1074   1.209       .  T
C1074      C1075   1.417       .  S
C1075      C1076   1.209       .  T
C1077      C1078   1.211       .  T
C1078      C1079   1.420       .  S
C1079      C1080   1.210       .  T
C1081      C1082   1.210       .  T
C1082      C1083   1.419       .  S
C1083      C1084   1.211       .  T
C1085      C1086   1.209   1_565  T
