geometry optimzed in LAMMPS
_audit_creation_date              2020-11-30 
_audit_creation_method            'lammps2cif' 
_symmetry_space_group_name_H-M    'P1' 
_symmetry_Int_Tables_number       1 
_symmetry_cell_setting            triclinic 
loop_ 
_symmetry_equiv_pos_as_xyz 
  x,y,z 
_cell_length_a                    48.94657058264956 
_cell_length_b                    48.789528635581156 
_cell_length_c                    31.214629940390687 
_cell_angle_alpha                 90.02934040102916 
_cell_angle_beta                  90.18012834627996 
_cell_angle_gamma                 119.92449776605369 
loop_ 
_atom_site_label 
_atom_site_type_symbol 
_atom_site_fract_x 
_atom_site_fract_y 
_atom_site_fract_z 
_atom_site_charge 
C1          C  0.35853312  0.34289138  0.25202016     0.01430
C2          C  0.34191496  0.35805116  0.25279609     0.01430
C3          C  0.43607763  0.33852782  0.24792390     0.01430
C4          C  0.46779862  0.35318514  0.24750689     0.01430
C5          C  0.46735190  0.06433039  0.24423904     0.01430
C6          C  0.43560133  0.04883505  0.24425074     0.01430
C7          C  0.37242339  0.03532534  0.32157839     0.03990
C8          C  0.40235295  0.05325186  0.30223437    -0.12160
C9          C  0.41746962  0.03760373  0.28528765     0.01490
C10         C  0.40390667  0.00523383  0.29425263    -0.10680
C11         C  0.37086619  0.98796218  0.29392413     0.03980
C12         C  0.35558428  0.00233028  0.31392940    -0.10100
H13         H  0.41302632  0.07866572  0.29910879     0.09580
H14         H  0.41628574  0.99329437  0.28350499     0.07110
H15         H  0.33068326  0.98833379  0.32092959     0.06960
C16         C  0.36926731  0.03320072  0.17753235     0.03990
C17         C  0.40242322  0.04980243  0.18393599    -0.12160
C18         C  0.41681801  0.03448852  0.20402678     0.01490
C19         C  0.39954116  0.00141767  0.20360352    -0.10680
C20         C  0.36745643  0.98804147  0.21325905     0.03980
C21         C  0.35182212  0.00362728  0.19806869    -0.10100
H22         H  0.41683201  0.07442756  0.17538572     0.09580
H23         H  0.41145684  0.98885524  0.21378060     0.07110
H24         H  0.32669507  0.99333477  0.20303134     0.06960
C25         C  0.35655359  0.46941402  0.25370421     0.01430
C26         C  0.34126648  0.43765429  0.25287809     0.01430
C27         C  0.03352555  0.11471157  0.31795003     0.03990
C28         C  0.00307504  0.10272081  0.29935634    -0.12160
C29         C  0.98618211  0.07128835  0.28469267     0.01490
C30         C  0.99985413  0.05245635  0.29240587    -0.10680
C31         C  0.03258581  0.06810804  0.28689960     0.03980
C32         C  0.04961367  0.09932259  0.30212395    -0.10100
H33         H  0.99480451  0.11859241  0.28980445     0.09580
H34         H  0.98649583  0.02772266  0.28344915     0.07110
H35         H  0.07409901  0.11279899  0.29334180     0.06960
C36         C  0.03369919  0.11124542  0.17351970     0.03990
C37         C  0.00219093  0.09896821  0.18671413    -0.12160
C38         C  0.48581823  0.06861299  0.20442659     0.01490
C39         C  0.99988762  0.04971700  0.20110753    -0.10680
C40         C  0.03276713  0.06548176  0.20599179     0.03980
C41         C  0.04985784  0.09548910  0.18696477    -0.10100
H42         H  0.49129419  0.11359319  0.18547819     0.09580
H43         H  0.98663164  0.02565400  0.21276875     0.07110
H44         H  0.07530133  0.10710743  0.18538392     0.06960
C45         C  0.04439509  0.05978254  0.24765883     0.01430
C46         C  0.06092539  0.04455635  0.24997619     0.01430
C47         C  0.11171735  0.03258620  0.32397628     0.03990
C48         C  0.09711511  0.04959529  0.30974072    -0.12160
C49         C  0.06682712  0.03305972  0.29155826     0.01490
C50         C  0.05016081  0.00012410  0.29722565    -0.10680
C51         C  0.06799160  0.98487382  0.29414701     0.03980
C52         C  0.09832691  0.00052852  0.31226260    -0.10100
H53         H  0.10999348  0.07521408  0.31003322     0.09580
H54         H  0.02599306  0.98735072  0.28598947     0.07110
H55         H  0.11203403  0.98871048  0.31462905     0.06960
C56         C  0.37079058  0.29087771  0.32200434     0.03990
C57         C  0.35474990  0.30716969  0.31116802    -0.12160
C58         C  0.37158331  0.33702461  0.29214949     0.01490
C59         C  0.40455775  0.35229870  0.29513101    -0.10680
C60         C  0.41795652  0.33304466  0.28872177     0.03980
C61         C  0.40169250  0.30247537  0.30621673    -0.10100
H62         H  0.32947159  0.29616237  0.31508706     0.09580
H63         H  0.41782667  0.37666248  0.28469026     0.07110
H64         H  0.41219415  0.28749253  0.30592081     0.06960
Fe65       Fe  0.33084404  0.14302140  0.99995728     1.65780
Fe66       Fe  0.26136682  0.14291877  0.49916786     1.73250
Fe67       Fe  0.26132536  0.07337596  0.49600483     1.54420
O68         O  0.29261451  0.07028163  0.45452104    -0.80810
O69         O  0.23619923  0.11809399  0.05222022    -0.79120
O70         O  0.33431144  0.11856039  0.44801911    -0.83320
O71         O  0.33380168  0.11165093  0.04158741    -0.78170
O72         O  0.23493300  0.07221792  0.44331372    -0.80080
O73         O  0.29213711  0.17769465  0.04010078    -0.82690
C74         C  0.31459024  0.08547543  0.05886550     0.98070
C75         C  0.31887893  0.08949487  0.43765762     1.05510
O76         O  0.28464221  0.11978677  0.49807845    -1.11670
O77         O  0.28569399  0.17032862  0.44703788    -0.74110
O78         O  0.33375675  0.17714735  0.45806930    -0.77590
O79         O  0.28558932  0.07009645  0.04840906    -0.78280
C80         C  0.31509011  0.18426103  0.43915616     0.96980
O81         O  0.33264645  0.17017606  0.05253792    -0.76240
O82         O  0.22610579  0.11174432  0.45831938    -0.81430
C83         C  0.22134737  0.08855834  0.05924001     0.99600
C84         C  0.22004022  0.08701642  0.43745073     1.05520
O85         O  0.22647990  0.06960511  0.03736328    -0.77080
C86         C  0.31728803  0.18434811  0.05989678     1.03820
C87         C  0.36965951  0.29077846  0.17764520     0.03990
C88         C  0.35299694  0.30551193  0.19300267    -0.12160
C89         C  0.36990369  0.33596419  0.21099789     0.01490
C90         C  0.40263911  0.35232286  0.20475169    -0.10680
C91         C  0.41743983  0.33407524  0.20783679     0.03980
C92         C  0.40164951  0.30390028  0.18915612    -0.10100
H93         H  0.32746576  0.29282712  0.19302931     0.09580
H94         H  0.41577827  0.37671619  0.21526684     0.07110
H95         H  0.41341072  0.29018254  0.18604682     0.06960
C96         C  0.11307990  0.03029709  0.17854583     0.03990
C97         C  0.09929646  0.04771673  0.19515170    -0.12160
C98         C  0.06835058  0.03181664  0.21095145     0.01490
C99         C  0.05160614  0.99891546  0.20600717    -0.10680
C100        C  0.06951916  0.98425364  0.21339300     0.03980
C101        C  0.10035750  0.99963582  0.19698850    -0.10100
H102        H  0.11349281  0.07291850  0.20056342     0.09580
H103        H  0.02708910  0.98640147  0.21551420     0.07110
H104        H  0.11527793  0.99020186  0.20593322     0.06960
C105        C  0.03363357  0.36842421  0.32093621     0.03990
C106        C  0.00362786  0.35011226  0.30175700    -0.12160
C107        C  0.98689772  0.36484925  0.28762908     0.01490
C108        C  0.00009139  0.39724862  0.29648923    -0.10680
C109        C  0.03307998  0.41520493  0.29476218     0.03980
C110        C  0.04945852  0.40152025  0.31383543    -0.10100
H111        H  0.99374249  0.32488133  0.29720257     0.09580
H112        H  0.98691723  0.40862335  0.28673033     0.07110
H113        H  0.07427960  0.41629083  0.32090236     0.06960
C114        C  0.03406595  0.37053372  0.17971592     0.03990
C115        C  0.00175111  0.35227251  0.18930812    -0.12160
C116        C  0.98631887  0.36710349  0.20755120     0.01490
C117        C  0.00213183  0.40027755  0.20582885    -0.10680
C118        C  0.03475810  0.41562645  0.21340151     0.03980
C119        C  0.05123754  0.40162511  0.19588038    -0.10100
H120        H  0.98950193  0.32681010  0.18538994     0.09580
H121        H  0.98951372  0.41197249  0.21659381     0.07110
H122        H  0.07675950  0.41385310  0.19690668     0.06960
Fe123      Fe  0.07517520  0.26306827  0.50391727     1.65780
Fe124      Fe  0.14411324  0.33378591  0.00371584     1.73250
Fe125      Fe  0.14536156  0.26390222  0.00211018     1.54410
O126        O  0.11862689  0.23248725  0.04997112    -0.80810
O127        O  0.17539918  0.33752239  0.45721286    -0.79120
O128        O  0.07270208  0.23174007  0.04975407    -0.83320
O129        O  0.07231955  0.23300075  0.45585820    -0.78170
O130        O  0.17711246  0.29237267  0.04810005    -0.79950
O131        O  0.11647343  0.33675844  0.45567257    -0.82690
C132        C  0.08950938  0.22270875  0.44097888     0.98070
C133        C  0.09054974  0.22162995  0.06304006     1.05510
O134        O  0.12160915  0.28695435  0.00356422    -1.11670
O135        O  0.11572802  0.33674160  0.04979934    -0.74110
O136        O  0.07147397  0.29000514  0.05210160    -0.77590
O137        O  0.11705834  0.23258198  0.45548970    -0.78280
C138        C  0.08848829  0.31835552  0.06450685     0.96980
O139        O  0.07167824  0.29082797  0.45729474    -0.76240
O140        O  0.17472018  0.33687534  0.05176722    -0.81430
C141        C  0.18514504  0.32000115  0.44157277     0.99600
C142        C  0.18598274  0.31959934  0.06351734     1.05520
O143        O  0.17510881  0.29180828  0.45392590    -0.77080
C144        C  0.08867264  0.31836684  0.44226508     1.03820
C145        C  0.29120845  0.37186708  0.32416870     0.03990
C146        C  0.30618137  0.35452213  0.31256598    -0.12160
C147        C  0.33625293  0.37054115  0.29381652     0.01490
C148        C  0.35287749  0.40354525  0.29824379    -0.10680
C149        C  0.33503726  0.41854716  0.29261109     0.03980
C150        C  0.30429054  0.40307815  0.30872272    -0.10100
H151        H  0.29437383  0.32909259  0.31615558     0.09580
H152        H  0.37724093  0.41609263  0.28809151     0.07110
H153        H  0.29033361  0.41469617  0.30803137     0.06960
C154        C  0.29164304  0.37304611  0.18069381     0.03990
C155        C  0.30535461  0.35511533  0.19456648    -0.12160
C156        C  0.33565502  0.37080380  0.21262864     0.01490
C157        C  0.35296845  0.40375282  0.20762459    -0.10680
C158        C  0.33574528  0.41952798  0.21202033     0.03980
C159        C  0.30554215  0.40491765  0.19357482    -0.10100
H160        H  0.29204573  0.32951018  0.19335223     0.09580
H161        H  0.37728194  0.41594553  0.21826683     0.07110
H162        H  0.29245829  0.41739554  0.19155118     0.06960
C163        C  0.04627098  0.43401570  0.25437199     0.01430
C164        C  0.06280459  0.46586762  0.25424998     0.01430
C165        C  0.26284130  0.35855211  0.35233841    -0.04470
C166        C  0.23552695  0.32914080  0.34352983    -0.01590
C167        C  0.20964439  0.31686121  0.37194982     0.03400
C168        C  0.21079265  0.33386032  0.40926604    -0.04470
C169        C  0.23754516  0.36383992  0.41705621    -0.01580
C170        C  0.26355838  0.37578934  0.38932054     0.03390
C171        C  0.23360081  0.31168603  0.30493114     0.38040
C172        C  0.23908576  0.38217435  0.45465104     0.38030
C173        C  0.29173451  0.40540376  0.40028219     0.36460
C174        C  0.18125039  0.28737282  0.36175714     0.36460
N175        N  0.31411799  0.42902581  0.40895089    -0.38360
N176        N  0.15849888  0.26402589  0.35333456    -0.38360
N177        N  0.24039038  0.39690897  0.98444460    -0.37810
N178        N  0.23199301  0.29761665  0.27424453    -0.37810
C179        C  0.26396656  0.35888370  0.15178840    -0.04470
C180        C  0.26842788  0.35361483  0.10856641    -0.01590
C181        C  0.24266761  0.34009867  0.08015237     0.03400
C182        C  0.21239628  0.33263077  0.09444957    -0.04470
C183        C  0.20794618  0.33825525  0.13753248    -0.01580
C184        C  0.23373882  0.35130877  0.16627819     0.03390
C185        C  0.29987220  0.36326116  0.09291368     0.38040
C186        C  0.17676684  0.32994223  0.15245680     0.38030
C187        C  0.22924728  0.35697367  0.21059967     0.36460
C188        C  0.24752739  0.33433611  0.03594142     0.36460
N189        N  0.22566092  0.36166321  0.24590854    -0.38360
N190        N  0.25161680  0.32959957  0.50087515    -0.38360
N191        N  0.15190051  0.32326855  0.16456049    -0.37810
N192        N  0.32499425  0.37123528  0.08050089    -0.37810
C193        C  0.04930068  0.35768091  0.15168519    -0.04470
C194        C  0.05645038  0.33464148  0.16648498    -0.01590
C195        C  0.06888739  0.32119726  0.13792604     0.03400
C196        C  0.07509120  0.33158793  0.09501270    -0.04470
C197        C  0.06785360  0.35461371  0.08034451    -0.01580
C198        C  0.05476514  0.36740672  0.10849979     0.03390
C199        C  0.05113226  0.32495837  0.21099021     0.38040
C200        C  0.07252774  0.36416244  0.03567398     0.38030
C201        C  0.04572903  0.38976040  0.09261373     0.36460
C202        C  0.07500082  0.29653731  0.15245855     0.36460
N203        N  0.03829282  0.40740953  0.08006841    -0.38360
N204        N  0.07960436  0.27663428  0.16390884    -0.38360
N205        N  0.07605355  0.37180343  0.50010299    -0.37810
N206        N  0.04695729  0.31726793  0.24653684    -0.37810
C207        C  0.04749881  0.35316907  0.34850905    -0.04470
C208        C  0.02893526  0.33215263  0.38145634    -0.01590
C209        C  0.04234295  0.32074654  0.41146446     0.03400
C210        C  0.07461162  0.32965212  0.40890605    -0.04470
C211        C  0.09294486  0.34944913  0.37486994    -0.01580
C212        C  0.07937725  0.36082186  0.34458361     0.03390
C213        C  0.99578493  0.32230625  0.38553881     0.38040
C214        C  0.12571090  0.35780326  0.37038082     0.38030
C215        C  0.09801673  0.37931061  0.30844302     0.36460
C216        C  0.02279990  0.30097036  0.44633828     0.36460
N217        N  0.11291600  0.39405528  0.27962598    -0.38360
N218        N  0.00711115  0.28520613  0.47395508    -0.38360
N219        N  0.15187743  0.36458004  0.36688147    -0.37810
N220        N  0.46917741  0.31370823  0.38845040    -0.37810
C221        C  0.19586518  0.07522263  0.09265505    -0.04470
C222        C  0.18664104  0.04556191  0.11163025    -0.01590
C223        C  0.15893343  0.02992425  0.13659800     0.03400
C224        C  0.14160686  0.04533225  0.14826818    -0.04470
C225        C  0.15041086  0.07464395  0.12698338    -0.01580
C226        C  0.17787809  0.08994265  0.10153537     0.03390
C227        C  0.20567272  0.03056734  0.10561142     0.38040
C228        C  0.12941876  0.08767070  0.12512708     0.38030
C229        C  0.18628750  0.12037390  0.08250088     0.36460
C230        C  0.14693056  0.99649425  0.14399251     0.36460
N231        N  0.19282960  0.14459343  0.06756580    -0.38360
N232        N  0.13785959  0.46975496  0.14844813    -0.38360
N233        N  0.11310172  0.09847753  0.12284064    -0.37810
N234        N  0.22064033  0.01845012  0.10095138    -0.37810
C235        C  0.32948904  0.21085232  0.09129444    -0.04470
C236        C  0.33670089  0.20691140  0.13392745    -0.01590
C237        C  0.34974810  0.23287487  0.16258880     0.03400
C238        C  0.35413864  0.26249174  0.14938399    -0.04470
C239        C  0.34515657  0.26590588  0.10758380    -0.01580
C240        C  0.33301397  0.24032299  0.07865405     0.03390
C241        C  0.32823134  0.17566630  0.14935884     0.38040
C242        C  0.34938411  0.29621218  0.09374492     0.38030
C243        C  0.32434361  0.24464425  0.03568139     0.36460
C244        C  0.35824575  0.22901714  0.20579884     0.36460
N245        N  0.31723278  0.24826011  0.50165407    -0.38360
N246        N  0.36523011  0.22600089  0.24019528    -0.38360
N247        N  0.35271778  0.32035779  0.08283389    -0.37810
N248        N  0.32072936  0.15065762  0.16221819    -0.37810
C249        C  0.35611649  0.26291187  0.35068216    -0.04470
C250        C  0.32751995  0.23539625  0.33998694    -0.01590
C251        C  0.31351166  0.20990368  0.36916480     0.03400
C252        C  0.32895328  0.21105974  0.40818103    -0.04470
C253        C  0.35770111  0.23879642  0.41855384    -0.01580
C254        C  0.37025165  0.26496190  0.39087544     0.03390
C255        C  0.31236467  0.23337781  0.29916553     0.38040
C256        C  0.37397356  0.24134356  0.45866648     0.38030
C257        C  0.39606703  0.29509951  0.40555666     0.36460
C258        C  0.28322338  0.18263625  0.35880534     0.36460
N259        N  0.41595668  0.31937222  0.41762098    -0.38360
N260        N  0.25878512  0.16121809  0.35063382    -0.38360
N261        N  0.38715548  0.24348654  0.49044736    -0.37810
N262        N  0.30021816  0.23184533  0.26667132    -0.37810
C263        C  0.14012626  0.04786597  0.35167029    -0.04470
C264        C  0.13619434  0.05094443  0.39579541    -0.01590
C265        C  0.16239061  0.06368560  0.42354425     0.03400
C266        C  0.19291606  0.07394935  0.40732847    -0.04470
C267        C  0.19701722  0.07185594  0.36287389    -0.01580
C268        C  0.17056016  0.05843449  0.33512562     0.03390
C269        C  0.10490796  0.04039348  0.41281637     0.38040
C270        C  0.22846046  0.08484782  0.34544280     0.38030
C271        C  0.17457686  0.05582036  0.28959017     0.36460
C272        C  0.15759193  0.06539132  0.46908226     0.36460
N273        N  0.17772497  0.05369628  0.25323281    -0.38360
N274        N  0.15319840  0.06646750  0.00527037    -0.38360
N275        N  0.25354209  0.09560056  0.33125318    -0.37810
N276        N  0.07995124  0.03200857  0.42621891    -0.37810
C277        C  0.04894347  0.14015311  0.14631473    -0.04470
C278        C  0.03492316  0.13975846  0.10645168    -0.01590
C279        C  0.04851306  0.16654139  0.07986616     0.03400
C280        C  0.07664703  0.19402526  0.09235435    -0.04470
C281        C  0.09106688  0.19441173  0.13180739    -0.01580
C282        C  0.07701086  0.16769170  0.15905154     0.03390
C283        C  0.00675077  0.11135665  0.09200303     0.38040
C284        C  0.11990691  0.22254557  0.14477879     0.38030
C285        C  0.09081231  0.16901174  0.20071523     0.36460
C286        C  0.03393966  0.16523053  0.03869019     0.36460
N287        N  0.10180049  0.17007048  0.23399319    -0.38360
N288        N  0.02218532  0.16406359  0.50598598    -0.38360
N289        N  0.14297341  0.24499891  0.15498414    -0.37810
N290        N  0.98425308  0.08876464  0.08063100    -0.37810
C291        C  0.04873652  0.14374189  0.34797683    -0.04470
C292        C  0.03083560  0.15724563  0.36495503    -0.01590
C293        C  0.04470779  0.18405796  0.39222431     0.03400
C294        C  0.07631372  0.19717743  0.40676973    -0.04470
C295        C  0.09410078  0.18355052  0.39127754    -0.01580
C296        C  0.08030601  0.15661030  0.36417677     0.03390
C297        C  0.99696422  0.14259059  0.35888172     0.38040
C298        C  0.12700074  0.19648829  0.40368703     0.38030
C299        C  0.09880972  0.14115569  0.35788482     0.36460
C300        C  0.02528001  0.19738771  0.40575789     0.36460
N301        N  0.11443906  0.12966746  0.35409787    -0.38360
N302        N  0.00950165  0.20760097  0.41641150    -0.38360
N303        N  0.15314501  0.20645359  0.41329935    -0.37810
N304        N  0.47002031  0.13187492  0.35471002    -0.37810
C305        C  0.35300267  0.04623311  0.15038815    -0.04470
C306        C  0.33042013  0.02666014  0.11922035    -0.01590
C307        C  0.31664143  0.03913810  0.09126444     0.03400
C308        C  0.32691906  0.07189808  0.09156661    -0.04470
C309        C  0.35026616  0.09162337  0.12170216    -0.01580
C310        C  0.36146983  0.07850057  0.15270569     0.03390
C311        C  0.32226814  0.99382642  0.11397584     0.38040
C312        C  0.36418346  0.12572485  0.11996427     0.38030
C313        C  0.38097232  0.09827794  0.18767635     0.36460
C314        C  0.29346760  0.01831536  0.06002750     0.36460
N315        N  0.39646707  0.11412576  0.21554476    -0.38360
N316        N  0.27496988  0.00159549  0.03528419    -0.38360
N317        N  0.37628545  0.15300083  0.11797942    -0.37810
N318        N  0.31547440  0.46759924  0.10997506    -0.37810
C319        C  0.33282342  0.07703905  0.40608131    -0.04470
C320        C  0.31469847  0.05738602  0.37166361    -0.01590
C321        C  0.32833360  0.04587932  0.34194810     0.03400
C322        C  0.35906439  0.05090077  0.34898704    -0.04470
C323        C  0.37647326  0.06896823  0.38492542    -0.01580
C324        C  0.36397636  0.08302545  0.41218797     0.03390
C325        C  0.28157522  0.04765655  0.36765506     0.38040
C326        C  0.40625468  0.07099000  0.39608124     0.38030
C327        C  0.38250430  0.10173947  0.44853590     0.36460
C328        C  0.31071109  0.02912190  0.30397908     0.36460
N329        N  0.39730240  0.11665347  0.47747736    -0.38360
N330        N  0.29664765  0.01577870  0.27369047    -0.38360
N331        N  0.42970455  0.07210419  0.40533747    -0.37810
N332        N  0.25486509  0.03876887  0.36489106    -0.37810
C333        C  0.35853209  0.34288906  0.75201473     0.01430
C334        C  0.34191588  0.35805075  0.75278839     0.01430
C335        C  0.43607514  0.33852301  0.74793041     0.01430
C336        C  0.46779633  0.35318489  0.74751579     0.01430
C337        C  0.46734892  0.06432467  0.74424512     0.01430
C338        C  0.43559845  0.04883364  0.74425617     0.01430
C339        C  0.37241693  0.03532225  0.82157890     0.03990
C340        C  0.40234762  0.05324918  0.80223758    -0.12160
C341        C  0.41746522  0.03760152  0.78529193     0.01490
C342        C  0.40390129  0.00523118  0.79425464    -0.10680
C343        C  0.37086077  0.98795983  0.79392271     0.03980
C344        C  0.35557797  0.00232745  0.81392710    -0.10100
H345        H  0.41302143  0.07866319  0.79911361     0.09580
H346        H  0.41628063  0.99329190  0.78350734     0.07110
H347        H  0.33067667  0.98833063  0.82092524     0.06960
C348        C  0.36926652  0.03320251  0.67753481     0.03990
C349        C  0.40242205  0.04980421  0.68394134    -0.12160
C350        C  0.41681599  0.03448922  0.70403118     0.01490
C351        C  0.39953945  0.00141842  0.70360466    -0.10680
C352        C  0.36745434  0.98804165  0.71325775     0.03980
C353        C  0.35182057  0.00362815  0.69806836    -0.10100
H354        H  0.41683115  0.07442978  0.67539346     0.09580
H355        H  0.41145481  0.98885565  0.71378169     0.07110
H356        H  0.32669327  0.99333520  0.70302906     0.06960
C357        C  0.35655202  0.46941288  0.75369778     0.01430
C358        C  0.34126665  0.43765328  0.75286951     0.01430
C359        C  0.03352183  0.11470769  0.81795401     0.03990
C360        C  0.00306906  0.10271332  0.79936585    -0.12160
C361        C  0.98617934  0.07128160  0.78469857     0.01490
C362        C  0.99985610  0.05245320  0.79240598    -0.10680
C363        C  0.03258754  0.06810917  0.78689528     0.03980
C364        C  0.04961287  0.09932392  0.80211986    -0.10100
H365        H  0.99479511  0.11858264  0.78981666     0.09580
H366        H  0.98650000  0.02771952  0.78344854     0.07110
H367        H  0.07409799  0.11280361  0.79333819     0.06960
C368        C  0.03369154  0.11124352  0.67351929     0.03990
C369        C  0.00218410  0.09896445  0.68671842    -0.12160
C370        C  0.48581461  0.06860921  0.70443129     0.01490
C371        C  0.99988569  0.04971501  0.70110788    -0.10680
C372        C  0.03276557  0.06548172  0.70598766     0.03980
C373        C  0.04985306  0.09548903  0.68695980    -0.10100
H374        H  0.49128580  0.11358809  0.68548605     0.09580
H375        H  0.98663183  0.02565181  0.71276896     0.07110
H376        H  0.07529650  0.10710890  0.68537525     0.06960
C377        C  0.04439680  0.05978486  0.74765341     0.01430
C378        C  0.06092622  0.04455771  0.74996961     0.01430
C379        C  0.11171811  0.03258971  0.82397332     0.03990
C380        C  0.09711568  0.04959800  0.80973537    -0.12160
C381        C  0.06682824  0.03306148  0.79155170     0.01490
C382        C  0.05016261  0.00012599  0.79721969    -0.10680
C383        C  0.06799439  0.98487675  0.79414246     0.03980
C384        C  0.09832917  0.00053221  0.81225950    -0.10100
H385        H  0.10999343  0.07521679  0.81002739     0.09580
H386        H  0.02599503  0.98735189  0.78598295     0.07110
H387        H  0.11203681  0.98871482  0.81462756     0.06960
C388        C  0.37078290  0.29087211  0.82200270     0.03990
C389        C  0.35474342  0.30716465  0.81116262    -0.12160
C390        C  0.37157887  0.33702009  0.79214583     0.01490
C391        C  0.40455305  0.35229369  0.79513238    -0.10680
C392        C  0.41795187  0.33303939  0.78872616     0.03980
C393        C  0.40168590  0.30246963  0.80621925    -0.10100
H394        H  0.32946491  0.29615789  0.81507852     0.09580
H395        H  0.41782308  0.37665764  0.78469261     0.07110
H396        H  0.41218738  0.28748662  0.80592605     0.06960
Fe397      Fe  0.33084912  0.14302331  0.49995492     1.65780
Fe398      Fe  0.26136197  0.14291759  0.99917542     1.73250
Fe399      Fe  0.26132003  0.07337428  0.99600982     1.54420
O400        O  0.29260729  0.07027882  0.95452352    -0.80810
O401        O  0.23620252  0.11809480  0.55221188    -0.79120
O402        O  0.33430471  0.11855709  0.94802137    -0.83320
O403        O  0.33380601  0.11165248  0.54158453    -0.78170
O404        O  0.23492671  0.07221719  0.94332055    -0.80080
O405        O  0.29214075  0.17769555  0.54009461    -0.82690
C406        C  0.31459390  0.08547752  0.55886300     0.98070
C407        C  0.31887166  0.08949157  0.93765965     1.05510
O408        O  0.28463715  0.11978519  0.99808369    -1.11670
O409        O  0.28568727  0.17032699  0.94704440    -0.74110
O410        O  0.33375009  0.17714442  0.95807069    -0.77590
O411        O  0.28559313  0.07009888  0.54840603    -0.78280
C412        C  0.31508288  0.18425842  0.93915971     0.96980
O413        O  0.33264904  0.17017597  0.55253593    -0.76240
O414        O  0.22609984  0.11174349  0.95832844    -0.81430
C415        C  0.22135056  0.08855919  0.55923221     0.99600
C416        C  0.22003429  0.08701615  0.93745851     1.05520
O417        O  0.22648370  0.06960609  0.53735614    -0.77080
C418        C  0.31729051  0.18434805  0.55989315     1.03820
C419        C  0.36965960  0.29077523  0.67764535     0.03990
C420        C  0.35299749  0.30551031  0.69299832    -0.12160
C421        C  0.36990437  0.33596220  0.71099415     0.01490
C422        C  0.40264021  0.35231935  0.70475238    -0.10680
C423        C  0.41743896  0.33407011  0.70784161     0.03980
C424        C  0.40164845  0.30389505  0.68916131    -0.10100
H425        H  0.32746630  0.29282690  0.69302119     0.09580
H426        H  0.41577968  0.37671250  0.71526824     0.07110
H427        H  0.41340859  0.29017606  0.68605533     0.06960
C428        C  0.11308214  0.03030053  0.67853925     0.03990
C429        C  0.09929712  0.04771917  0.69514376    -0.12160
C430        C  0.06835145  0.03181805  0.71094451     0.01490
C431        C  0.05160863  0.99891669  0.70600144    -0.10680
C432        C  0.06952316  0.98425656  0.71338870     0.03980
C433        C  0.10036179  0.99964028  0.69698473    -0.10100
H434        H  0.11349268  0.07292081  0.70055665     0.09580
H435        H  0.02709156  0.98640173  0.71550823     0.07110
H436        H  0.11528392  0.99020828  0.70592976     0.06960
C437        C  0.03363092  0.36842528  0.82094600     0.03990
C438        C  0.00362443  0.35011293  0.80176879    -0.12160
C439        C  0.98689462  0.36484984  0.78763884     0.01490
C440        C  0.00008894  0.39724961  0.79649697    -0.10680
C441        C  0.03307761  0.41520561  0.79476920     0.03980
C442        C  0.04945607  0.40152111  0.81384322    -0.10100
H443        H  0.99373870  0.32488179  0.79721612     0.09580
H444        H  0.98691489  0.40862431  0.78673755     0.07110
H445        H  0.07427741  0.41629153  0.82090865     0.06960
C446        C  0.03406260  0.37053373  0.67972238     0.03990
C447        C  0.00174820  0.35227242  0.68931640    -0.12160
C448        C  0.98631651  0.36710350  0.70756034     0.01490
C449        C  0.00212902  0.40027743  0.70583713    -0.10680
C450        C  0.03475536  0.41562654  0.71340844     0.03980
C451        C  0.05123457  0.40162528  0.69588622    -0.10100
H452        H  0.98949900  0.32680996  0.68539860     0.09580
H453        H  0.98951093  0.41197239  0.71660210     0.07110
H454        H  0.07675655  0.41385347  0.69691102     0.06960
Fe455      Fe  0.07518277  0.26306895  0.00391723     1.65780
Fe456      Fe  0.14410746  0.33378571  0.50372130     1.73250
Fe457      Fe  0.14535399  0.26390141  0.50211521     1.54410
O458        O  0.11861126  0.23247970  0.54996545    -0.80810
O459        O  0.17540604  0.33752126  0.95721082    -0.79120
O460        O  0.07269205  0.23174419  0.54976305    -0.83320
O461        O  0.07232723  0.23300807  0.95584897    -0.78170
O462        O  0.17709731  0.29236490  0.54811619    -0.79950
O463        O  0.11648107  0.33675748  0.95566372    -0.82690
C464        C  0.08951251  0.22270789  0.94097824     0.98070
C465        C  0.09053672  0.22162852  0.56304181     1.05510
O466        O  0.12160216  0.28695386  0.50356776    -1.11670
O467        O  0.11572442  0.33674047  0.54980896    -0.74110
O468        O  0.07146379  0.29000887  0.55209250    -0.77590
O469        O  0.11705851  0.23257404  0.95549631    -0.78280
C470        C  0.08848115  0.31835632  0.56450712     0.96980
O471        O  0.07168172  0.29083222  0.95730359    -0.76240
O472        O  0.17471668  0.33687441  0.55176930    -0.81430
C473        C  0.18514707  0.31999830  0.94156291     0.99600
C474        C  0.18597293  0.31959446  0.56352701     1.05520
O475        O  0.17510762  0.29180355  0.95391020    -0.77080
C476        C  0.08867700  0.31836829  0.94226591     1.03820
C477        C  0.29120645  0.37186469  0.82415489     0.03990
C478        C  0.30618019  0.35452029  0.81255467    -0.12160
C479        C  0.33625249  0.37053999  0.79380795     0.01490
C480        C  0.35287657  0.40354401  0.79823574    -0.10680
C481        C  0.33503613  0.41854551  0.79260154     0.03980
C482        C  0.30428864  0.40307580  0.80870976    -0.10100
H483        H  0.29437261  0.32909068  0.81614377     0.09580
H484        H  0.37724033  0.41609174  0.78808478     0.07110
H485        H  0.29033153  0.41469362  0.80801731     0.06960
C486        C  0.29164374  0.37304478  0.68068640     0.03990
C487        C  0.30535609  0.35511461  0.69455858    -0.12160
C488        C  0.33565666  0.37080335  0.71262025     0.01490
C489        C  0.35296980  0.40375247  0.70761626    -0.10680
C490        C  0.33574645  0.41952761  0.71201121     0.03980
C491        C  0.30554319  0.40491673  0.69356590    -0.10100
H492        H  0.29204714  0.32950942  0.69334568     0.09580
H493        H  0.37728312  0.41594533  0.71825927     0.07110
H494        H  0.29245906  0.41739436  0.69154257     0.06960
C495        C  0.04626889  0.43401598  0.75437857     0.01430
C496        C  0.06280465  0.46586788  0.75425574     0.01430
C497        C  0.26283979  0.35854997  0.85232433    -0.04470
C498        C  0.23552535  0.32913896  0.84351561    -0.01590
C499        C  0.20964371  0.31685888  0.87193703     0.03400
C500        C  0.21079298  0.33385788  0.90925401    -0.04470
C501        C  0.23754508  0.36383829  0.91704253    -0.01580
C502        C  0.26355781  0.37578727  0.88930660     0.03390
C503        C  0.23359836  0.31168527  0.80491538     0.38040
C504        C  0.23908598  0.38217460  0.95463543     0.38030
C505        C  0.29173462  0.40540119  0.90026834     0.36460
C506        C  0.18124966  0.28737040  0.86174484     0.36460
N507        N  0.31411871  0.42902271  0.90893706    -0.38360
N508        N  0.15849816  0.26402337  0.85332256    -0.38360
N509        N  0.24038978  0.39690694  0.48446209    -0.37810
N510        N  0.23198996  0.29761696  0.77422737    -0.37810
C511        C  0.26396406  0.35888018  0.65178628    -0.04470
C512        C  0.26841958  0.35360195  0.60856588    -0.01590
C513        C  0.24265661  0.34008538  0.58015643     0.03400
C514        C  0.21238821  0.33262552  0.59445643    -0.04470
C515        C  0.20794359  0.33825856  0.63753780    -0.01580
C516        C  0.23373901  0.35131288  0.66627910     0.03390
C517        C  0.29986094  0.36323946  0.59290927     0.38040
C518        C  0.17676717  0.32995402  0.65246508     0.38030
C519        C  0.22925303  0.35698587  0.71059937     0.36460
C520        C  0.24751077  0.33431499  0.53594647     0.36460
N521        N  0.22567132  0.36168175  0.74590737    -0.38360
N522        N  0.25163836  0.32962679  0.00086949    -0.38360
N523        N  0.15190328  0.32328729  0.66457139    -0.37810
N524        N  0.32498057  0.37120635  0.58049295    -0.37810
C525        C  0.04929601  0.35768090  0.65168961    -0.04470
C526        C  0.05644765  0.33464263  0.66648840    -0.01590
C527        C  0.06888392  0.32119869  0.63792792     0.03400
C528        C  0.07508406  0.33158786  0.59501380    -0.04470
C529        C  0.06784338  0.35461147  0.58034613    -0.01580
C530        C  0.05475643  0.36740484  0.60850329     0.03390
C531        C  0.05113170  0.32496001  0.71099391     0.38040
C532        C  0.07251332  0.36415780  0.53567469     0.38030
C533        C  0.04571786  0.38975699  0.59261857     0.36460
C534        C  0.07500003  0.29654029  0.65245935     0.36460
N535        N  0.03827971  0.40740495  0.58007449    -0.38360
N536        N  0.07960587  0.27663856  0.66390867    -0.38360
N537        N  0.07607149  0.37181016  0.00010308    -0.37810
N538        N  0.04695814  0.31726983  0.74654068    -0.37810
C539        C  0.04749765  0.35317053  0.84851697    -0.04470
C540        C  0.02893616  0.33215504  0.88146621    -0.01590
C541        C  0.04234528  0.32074844  0.91147154     0.03400
C542        C  0.07461372  0.32965319  0.90890895    -0.04470
C543        C  0.09294478  0.34944952  0.87487077    -0.01580
C544        C  0.07937553  0.36082235  0.84458706     0.03390
C545        C  0.99578659  0.32231055  0.88555391     0.38040
C546        C  0.12571034  0.35780307  0.87037660     0.38030
C547        C  0.09801280  0.37931043  0.80844460     0.36460
C548        C  0.02280380  0.30097240  0.94634652     0.36460
N549        N  0.11291032  0.39405458  0.77962610    -0.38360
N550        N  0.00711621  0.28520813  0.97396411    -0.38360
N551        N  0.15187651  0.36457951  0.86687321    -0.37810
N552        N  0.46917969  0.31371420  0.88847024    -0.37810
C553        C  0.19586764  0.07522353  0.59264696    -0.04470
C554        C  0.18663975  0.04556069  0.61161844    -0.01590
C555        C  0.15893195  0.02992446  0.63658628     0.03400
C556        C  0.14160909  0.04533542  0.64826106    -0.04470
C557        C  0.15041636  0.07464905  0.62697957    -0.01580
C558        C  0.17788358  0.08994635  0.60153101     0.03390
C559        C  0.20566738  0.03056215  0.60559548     0.38040
C560        C  0.12942760  0.08767977  0.62512683     0.38030
C561        C  0.18629597  0.12037934  0.58249978     0.36460
C562        C  0.14692431  0.99649302  0.64397573     0.36460
N563        N  0.19284046  0.14460029  0.56756739    -0.38360
N564        N  0.13786017  0.46975414  0.64845357    -0.38360
N565        N  0.11311331  0.09848990  0.62284293    -0.37810
N566        N  0.22063175  0.01844177  0.60093204    -0.37810
C567        C  0.32949036  0.21085128  0.59129180    -0.04470
C568        C  0.33669954  0.20690881  0.63392553    -0.01590
C569        C  0.34974621  0.23287156  0.66258794     0.03400
C570        C  0.35413943  0.26248936  0.64938289    -0.04470
C571        C  0.34516016  0.26590513  0.60758169    -0.01580
C572        C  0.33301754  0.24032276  0.57865128     0.03390
C573        C  0.32822802  0.17566299  0.64935614     0.38040
C574        C  0.34939068  0.29621250  0.59374246     0.38030
C575        C  0.32434948  0.24464538  0.53567786     0.36460
C576        C  0.35824034  0.22901212  0.70579928     0.36460
N577        N  0.31722516  0.24825793  0.00165817    -0.38360
N578        N  0.36522181  0.22599453  0.74019683    -0.38360
N579        N  0.35272679  0.32035897  0.58283106    -0.37810
N580        N  0.32072461  0.15065377  0.66221465    -0.37810
C581        C  0.35610771  0.26290728  0.85068246    -0.04470
C582        C  0.32751044  0.23539180  0.83998902    -0.01590
C583        C  0.31350225  0.20990007  0.86916835     0.03400
C584        C  0.32894491  0.21105662  0.90818383    -0.04470
C585        C  0.35769292  0.23879338  0.91855531    -0.01580
C586        C  0.37024324  0.26495813  0.89087575     0.03390
C587        C  0.31235458  0.23337237  0.79916778     0.38040
C588        C  0.37396578  0.24134128  0.95866782     0.38030
C589        C  0.39605907  0.29509591  0.90555561     0.36460
C590        C  0.28321303  0.18263307  0.85881127     0.36460
N591        N  0.41594906  0.31936885  0.91761865    -0.38360
N592        N  0.25877401  0.16121530  0.85064177    -0.38360
N593        N  0.38714797  0.24348478  0.99044864    -0.37810
N594        N  0.30020760  0.23183901  0.76667368    -0.37810
C595        C  0.14012545  0.04787000  0.85166992    -0.04470
C596        C  0.13619145  0.05095143  0.89579363    -0.01590
C597        C  0.16238600  0.06369134  0.92354547     0.03400
C598        C  0.19291177  0.07395128  0.90733377    -0.04470
C599        C  0.19701521  0.07185630  0.86288024    -0.01580
C600        C  0.17055983  0.05843547  0.83512926     0.03390
C601        C  0.10490465  0.04040452  0.91281013     0.38040
C602        C  0.22845935  0.08484674  0.84545281     0.38030
C603        C  0.17457875  0.05581898  0.78959502     0.36460
C604        C  0.15758518  0.06539940  0.96908234     0.36460
N605        N  0.17772852  0.05369294  0.75323862    -0.38360
N606        N  0.15320651  0.06645739  0.50527117    -0.38360
N607        N  0.25354186  0.09559881  0.83126639    -0.37810
N608        N  0.07994758  0.03202289  0.92620894    -0.37810
C609        C  0.04893276  0.14015201  0.64631586    -0.04470
C610        C  0.03491033  0.13975773  0.60645469    -0.01590
C611        C  0.04849892  0.16654102  0.57986970     0.03400
C612        C  0.07663346  0.19402455  0.59235673    -0.04470
C613        C  0.09105430  0.19441132  0.63180885    -0.01580
C614        C  0.07699980  0.16769103  0.65905236     0.03390
C615        C  0.00673745  0.11135593  0.59200724     0.38040
C616        C  0.11989379  0.22254590  0.64477988     0.38030
C617        C  0.09080259  0.16901107  0.70071501     0.36460
C618        C  0.03392390  0.16523105  0.53869540     0.36460
N619        N  0.10179183  0.17006982  0.73399214    -0.38360
N620        N  0.02220223  0.16406232  0.00597957    -0.38360
N621        N  0.14295968  0.24500005  0.65498488    -0.37810
N622        N  0.98423939  0.08876388  0.58063620    -0.37810
C623        C  0.04873299  0.14373750  0.84798170    -0.04470
C624        C  0.03083352  0.15724259  0.86496037    -0.01590
C625        C  0.04470712  0.18405481  0.89223000     0.03400
C626        C  0.07631427  0.19717506  0.90677108    -0.04470
C627        C  0.09409984  0.18354693  0.89127754    -0.01580
C628        C  0.08030211  0.15660402  0.86418189     0.03390
C629        C  0.99696223  0.14258894  0.85888784     0.38040
C630        C  0.12700134  0.19648650  0.90367976     0.38030
C631        C  0.09880093  0.14114328  0.85789814     0.36460
C632        C  0.02527920  0.19738298  0.90576949     0.36460
N633        N  0.11442560  0.12964939  0.85411685    -0.38360
N634        N  0.00950074  0.20759495  0.91642788    -0.38360
N635        N  0.15314686  0.20645327  0.91328638    -0.37810
N636        N  0.47001840  0.13187453  0.85471744    -0.37810
C637        C  0.35300304  0.04623508  0.65038912    -0.04470
C638        C  0.33042249  0.02666247  0.61921907    -0.01590
C639        C  0.31664466  0.03914049  0.59126202     0.03400
C640        C  0.32692170  0.07190025  0.59156508    -0.04470
C641        C  0.35026724  0.09162537  0.62170238    -0.01580
C642        C  0.36146963  0.07850235  0.65270722     0.03390
C643        C  0.32227190  0.99382925  0.61397325     0.38040
C644        C  0.36418429  0.12572685  0.61996492     0.38030
C645        C  0.38097022  0.09827923  0.68767953     0.36460
C646        C  0.29347256  0.01831818  0.56002299     0.36460
N647        N  0.39646344  0.11412668  0.71554923    -0.38360
N648        N  0.27497622  0.00159871  0.53527801    -0.38360
N649        N  0.37628614  0.15300283  0.61798056    -0.37810
N650        N  0.31548015  0.46760148  0.60996763    -0.37810
C651        C  0.33281579  0.07703516  0.90608314    -0.04470
C652        C  0.31469055  0.05738109  0.87166629    -0.01590
C653        C  0.32832585  0.04587470  0.84195030     0.03400
C654        C  0.35905715  0.05089701  0.84898824    -0.04470
C655        C  0.37646598  0.06896489  0.88492647    -0.01580
C656        C  0.36396896  0.08302204  0.91218908     0.03390
C657        C  0.28156682  0.04765005  0.86765924     0.38040
C658        C  0.40624765  0.07098723  0.89608228     0.38030
C659        C  0.38249704  0.10173638  0.94853671     0.36460
C660        C  0.31070300  0.02911700  0.80398164     0.36460
N661        N  0.39729514  0.11665062  0.97747802    -0.38360
N662        N  0.29663922  0.01577357  0.77369334    -0.38360
N663        N  0.42969771  0.07210189  0.90533859    -0.37810
N664        N  0.25485634  0.03876098  0.86489641    -0.37810
C665        C  0.35851862  0.84288650  0.25201568     0.01430
C666        C  0.34191133  0.85805782  0.25278760     0.01430
C667        C  0.43606976  0.83853504  0.24791767     0.01430
C668        C  0.46778993  0.85317825  0.24750226     0.01430
C669        C  0.46735080  0.56431303  0.24422634     0.01430
C670        C  0.43560011  0.54882315  0.24424470     0.01430
C671        C  0.37244026  0.53531541  0.32161022     0.03990
C672        C  0.40236123  0.55324190  0.30224341    -0.12160
C673        C  0.41747611  0.53759447  0.28528809     0.01490
C674        C  0.40392173  0.50522677  0.29426277    -0.10680
C675        C  0.37088138  0.48795089  0.29396056     0.03980
C676        C  0.35560482  0.50231806  0.31398144    -0.10100
H677        H  0.41302815  0.57865431  0.29910590     0.09580
H678        H  0.41629883  0.49328836  0.28350206     0.07110
H679        H  0.33070743  0.48831907  0.32100287     0.06960
C680        C  0.36924963  0.53319996  0.17758488     0.03990
C681        C  0.40241069  0.54979149  0.18394671    -0.12160
C682        C  0.41680878  0.53447616  0.20402548     0.01490
C683        C  0.39952406  0.50140561  0.20361277    -0.10680
C684        C  0.36744531  0.48803905  0.21330074     0.03980
C685        C  0.35181156  0.50363480  0.19814478    -0.10100
H686        H  0.41682477  0.57441016  0.17536983     0.09580
H687        H  0.41143939  0.48883938  0.21377480     0.07110
H688        H  0.32669007  0.49335386  0.20314796     0.06960
C689        C  0.35655076  0.96942134  0.25366582     0.01430
C690        C  0.34126182  0.93766132  0.25284582     0.01430
C691        C  0.03351822  0.61470536  0.31793694     0.03990
C692        C  0.00306403  0.60270418  0.29935097    -0.12160
C693        C  0.98618294  0.57127347  0.28467917     0.01490
C694        C  0.99986674  0.55245165  0.29238676    -0.10680
C695        C  0.03259813  0.56811491  0.28687463     0.03980
C696        C  0.04961695  0.59933136  0.30209570    -0.10100
H697        H  0.99478549  0.61856842  0.28979624     0.09580
H698        H  0.98651545  0.52771736  0.28343085     0.07110
H699        H  0.07410374  0.61281813  0.29332326     0.06960
C700        C  0.03368948  0.61123659  0.17349434     0.03990
C701        C  0.00218075  0.59895270  0.18669298    -0.12160
C702        C  0.48581524  0.56859790  0.20441006     0.01490
C703        C  0.99989224  0.54970873  0.20108992    -0.10680
C704        C  0.03277267  0.56548093  0.20596833     0.03980
C705        C  0.04985522  0.59548685  0.18693643    -0.10100
H706        H  0.49127899  0.61357313  0.18545900     0.09580
H707        H  0.98664233  0.52564589  0.21275335     0.07110
H708        H  0.07529881  0.60710992  0.18535087     0.06960
C709        C  0.04440912  0.55979120  0.24763494     0.01430
C710        C  0.06094182  0.54456742  0.24995332     0.01430
C711        C  0.11174046  0.53260107  0.32394901     0.03990
C712        C  0.09713878  0.54961051  0.30971168    -0.12160
C713        C  0.06684830  0.53307470  0.29153584     0.01490
C714        C  0.05018108  0.50013961  0.29720926    -0.10680
C715        C  0.06801000  0.48488727  0.29413059     0.03980
C716        C  0.09834690  0.50054203  0.31224109    -0.10100
H717        H  0.11001878  0.57522927  0.30999892     0.09580
H718        H  0.02601228  0.48736626  0.28597711     0.07110
H719        H  0.11205229  0.48872226  0.31460918     0.06960
C720        C  0.37078676  0.79087801  0.32200030     0.03990
C721        C  0.35474053  0.80716472  0.31116304    -0.12160
C722        C  0.37156961  0.83702095  0.29214558     0.01490
C723        C  0.40454440  0.85229959  0.29512633    -0.10680
C724        C  0.41794785  0.83304986  0.28871554     0.03980
C725        C  0.40168911  0.80248087  0.30621168    -0.10100
H726        H  0.32946183  0.79615288  0.31508164     0.09580
H727        H  0.41781015  0.87666379  0.28468641     0.07110
H728        H  0.41219493  0.78750176  0.30591525     0.06960
Fe729      Fe  0.33086037  0.64302074  0.99995933     1.65780
Fe730      Fe  0.26137919  0.64292010  0.49916169     1.73250
Fe731      Fe  0.26133248  0.57337788  0.49600283     1.54420
O732        O  0.29263042  0.57027771  0.45454204    -0.80810
O733        O  0.23621896  0.61810220  0.05221126    -0.79120
O734        O  0.33432197  0.61855744  0.44802425    -0.83320
O735        O  0.33380698  0.61164385  0.04159498    -0.78170
O736        O  0.23495587  0.57222513  0.44329475    -0.80080
O737        O  0.29215803  0.67770093  0.04008518    -0.82690
C738        C  0.31458680  0.58547655  0.05888665     0.98070
C739        C  0.31889322  0.58948994  0.43767399     1.05510
O740        O  0.28465232  0.61978732  0.49807575    -1.11670
O741        O  0.28570718  0.67032477  0.44702939    -0.74110
O742        O  0.33377073  0.67714648  0.45806939    -0.77590
O743        O  0.28558638  0.57010619  0.04842644    -0.78280
C744        C  0.31510385  0.68425809  0.43915081     0.96980
O745        O  0.33266097  0.67017518  0.05253769    -0.76240
O746        O  0.22611725  0.61174216  0.45831486    -0.81430
C747        C  0.22135751  0.58856510  0.05921896     0.99600
C748        C  0.22005793  0.58701931  0.43743699     1.05520
O749        O  0.22648214  0.56961095  0.03733237    -0.77080
C750        C  0.31730608  0.68435193  0.05988764     1.03820
C751        C  0.36965864  0.79078198  0.17763701     0.03990
C752        C  0.35299009  0.80550768  0.19299999    -0.12160
C753        C  0.36989168  0.83596043  0.21099491     0.01490
C754        C  0.40262699  0.85232592  0.20474735    -0.10680
C755        C  0.41743433  0.83408448  0.20782889     0.03980
C756        C  0.40165023  0.80391117  0.18914355    -0.10100
H757        H  0.32745890  0.79281725  0.19302959     0.09580
H758        H  0.41576190  0.87671920  0.21526373     0.07110
H759        H  0.41341724  0.79019927  0.18602948     0.06960
C760        C  0.11309114  0.53030287  0.17852334     0.03990
C761        C  0.09930846  0.54772323  0.19512773    -0.12160
C762        C  0.06836361  0.53182431  0.21092979     0.01490
C763        C  0.05161864  0.49892267  0.20599031    -0.10680
C764        C  0.06953186  0.48426107  0.21337672     0.03980
C765        C  0.10036957  0.49964245  0.19696927    -0.10100
H766        H  0.11350520  0.57292520  0.20053750     0.09580
H767        H  0.02710228  0.48640969  0.21550056     0.07110
H768        H  0.11529033  0.49020875  0.20591364     0.06960
C769        C  0.03362101  0.86840945  0.32093406     0.03990
C770        C  0.00361631  0.85009932  0.30175163    -0.12160
C771        C  0.98688716  0.86483790  0.28762615     0.01490
C772        C  0.00008027  0.89723640  0.29649174    -0.10680
C773        C  0.03306884  0.91519251  0.29476841     0.03980
C774        C  0.04944612  0.90150618  0.31384010    -0.10100
H775        H  0.99373123  0.82486886  0.29719245     0.09580
H776        H  0.98690698  0.90861220  0.28673332     0.07110
H777        H  0.07426667  0.91627631  0.32091057     0.06960
C778        C  0.03406220  0.87052919  0.17971652     0.03990
C779        C  0.00174679  0.85226745  0.18930633    -0.12160
C780        C  0.98631354  0.86709775  0.20754912     0.01490
C781        C  0.00212705  0.90027187  0.20583042    -0.10680
C782        C  0.03475263  0.91561957  0.21340776     0.03980
C783        C  0.05123307  0.90161927  0.19588614    -0.10100
H784        H  0.98949755  0.82680529  0.18538514     0.09580
H785        H  0.98950860  0.91196644  0.21659567     0.07110
H786        H  0.07675494  0.91384703  0.19691529     0.06960
Fe787      Fe  0.07517011  0.76305911  0.50391011     1.65780
Fe788      Fe  0.14410724  0.83378419  0.00370444     1.73250
Fe789      Fe  0.14535732  0.76390144  0.00208796     1.54410
O790        O  0.11860447  0.73246170  0.04991823    -0.80810
O791        O  0.17537895  0.83752215  0.45717348    -0.79120
O792        O  0.07269911  0.73175555  0.04977409    -0.83320
O793        O  0.07230741  0.73296364  0.45588610    -0.78170
O794        O  0.17708996  0.79235218  0.04810870    -0.79950
O795        O  0.11644986  0.83675186  0.45568580    -0.82690
C796        C  0.08951229  0.72270474  0.44095962     0.98070
C797        C  0.09053864  0.72162546  0.06302340     1.05510
O798        O  0.12160343  0.78695188  0.00355058    -1.11670
O799        O  0.11573714  0.83673821  0.04981406    -0.74110
O800        O  0.07146353  0.79001690  0.05206549    -0.77590
O801        O  0.11707796  0.73260902  0.45542586    -0.78280
C802        C  0.08848774  0.81835883  0.06449745     0.96980
O803        O  0.07167346  0.79079958  0.45725671    -0.76240
O804        O  0.17473123  0.83687499  0.05173125    -0.81430
C805        C  0.18514417  0.82001050  0.44155669     0.99600
C806        C  0.18597623  0.81958839  0.06350412     1.05520
O807        O  0.17512875  0.79182692  0.45393386    -0.77080
C808        C  0.08865921  0.81834861  0.44225248     1.03820
C809        C  0.29120537  0.87188027  0.32415044     0.03990
C810        C  0.30618077  0.85453583  0.31255672    -0.12160
C811        C  0.33625145  0.87055341  0.29380491     0.01490
C812        C  0.35287385  0.90355825  0.29822349    -0.10680
C813        C  0.33503170  0.91855763  0.29258301     0.03980
C814        C  0.30428495  0.90308888  0.30869521    -0.10100
H815        H  0.29437533  0.82910703  0.31615428     0.09580
H816        H  0.37723738  0.91610568  0.28807169     0.07110
H817        H  0.29032627  0.91470492  0.30799744     0.06960
C818        C  0.29164253  0.87304669  0.18066914     0.03990
C819        C  0.30535327  0.85511715  0.19455062    -0.12160
C820        C  0.33565279  0.87080742  0.21261580     0.01490
C821        C  0.35296676  0.90375574  0.20760532    -0.10680
C822        C  0.33574358  0.91953148  0.21199192     0.03980
C823        C  0.30554163  0.90491975  0.19354279    -0.10100
H824        H  0.29204395  0.82951189  0.19334217     0.09580
H825        H  0.37727992  0.91594947  0.21824885     0.07110
H826        H  0.29245805  0.91739765  0.19151212     0.06960
C827        C  0.04626211  0.93400592  0.25438112     0.01430
C828        C  0.06279061  0.96585781  0.25426383     0.01430
C829        C  0.26283738  0.85856583  0.35231889    -0.04470
C830        C  0.23552654  0.82915029  0.34351567    -0.01590
C831        C  0.20964529  0.81686836  0.37193791     0.03400
C832        C  0.21079027  0.83387062  0.40924890    -0.04470
C833        C  0.23753885  0.86385322  0.41703479    -0.01580
C834        C  0.26355132  0.87580528  0.38929714     0.03390
C835        C  0.23360275  0.81169326  0.30492035     0.38040
C836        C  0.23907666  0.88218607  0.45462988     0.38030
C837        C  0.29172373  0.90542432  0.40025338     0.36460
C838        C  0.18125717  0.78737155  0.36175627     0.36460
N839        N  0.31410434  0.92905002  0.40891786    -0.38360
N840        N  0.15851066  0.76401695  0.35334407    -0.38360
N841        N  0.24037895  0.89691944  0.98442620    -0.37810
N842        N  0.23199705  0.79762244  0.27423617    -0.37810
C843        C  0.26396449  0.85888035  0.15176665    -0.04470
C844        C  0.26842415  0.85361139  0.10854403    -0.01590
C845        C  0.24266211  0.84009210  0.08013290     0.03400
C846        C  0.21239057  0.83261964  0.09443446    -0.04470
C847        C  0.20794217  0.83824488  0.13751751    -0.01580
C848        C  0.23373671  0.85130261  0.16625990     0.03390
C849        C  0.29986843  0.86326179  0.09288753     0.38040
C850        C  0.17676333  0.82993153  0.15244418     0.38030
C851        C  0.22924755  0.85697114  0.21058075     0.36460
C852        C  0.24752009  0.83433221  0.03591995     0.36460
N853        N  0.22566312  0.86166408  0.24588891    -0.38360
N854        N  0.25161125  0.82959992  0.50085184    -0.38360
N855        N  0.15189752  0.82325799  0.16454988    -0.37810
N856        N  0.32499049  0.87123943  0.08047164    -0.37810
C857        C  0.04929816  0.85767863  0.15168306    -0.04470
C858        C  0.05644978  0.83463983  0.16647985    -0.01590
C859        C  0.06888818  0.82119811  0.13791869     0.03400
C860        C  0.07509137  0.83159043  0.09500603    -0.04470
C861        C  0.06785113  0.85461474  0.08034031    -0.01580
C862        C  0.05476186  0.86740583  0.10849794     0.03390
C863        C  0.05113144  0.82495414  0.21098405     0.38040
C864        C  0.07252319  0.86416330  0.03566975     0.38030
C865        C  0.04572416  0.88975890  0.09261462     0.36460
C866        C  0.07500122  0.79653707  0.15244719     0.36460
N867        N  0.03828671  0.90740763  0.08007154    -0.38360
N868        N  0.07960405  0.77663289  0.16389428    -0.38360
N869        N  0.07604929  0.87179913  0.50009316    -0.37810
N870        N  0.04695616  0.81726150  0.24652982    -0.37810
C871        C  0.04748577  0.85315203  0.34850261    -0.04470
C872        C  0.02892161  0.83213211  0.38144675    -0.01590
C873        C  0.04232978  0.82072533  0.41145287     0.03400
C874        C  0.07459848  0.82963326  0.40889457    -0.04470
C875        C  0.09293279  0.84943404  0.37486272    -0.01580
C876        C  0.07936508  0.86080737  0.34457787     0.03390
C877        C  0.99577070  0.82228316  0.38552843     0.38040
C878        C  0.12570017  0.85779197  0.37037794     0.38030
C879        C  0.09800543  0.87929971  0.30844003     0.36460
C880        C  0.02278868  0.80094765  0.44632686     0.36460
N881        N  0.11290524  0.89404727  0.27962511    -0.38360
N882        N  0.00710206  0.78518272  0.47394463    -0.38360
N883        N  0.15186778  0.86457194  0.36688190    -0.37810
N884        N  0.46916269  0.81368296  0.38843952    -0.37810
C885        C  0.19587445  0.57522857  0.09263127    -0.04470
C886        C  0.18665046  0.54556753  0.11160513    -0.01590
C887        C  0.15894380  0.52993005  0.13657438     0.03400
C888        C  0.14161705  0.54533776  0.14824424    -0.04470
C889        C  0.15041999  0.57464903  0.12695808    -0.01580
C890        C  0.17788714  0.58994804  0.10151016     0.03390
C891        C  0.20568128  0.53057240  0.10558292     0.38040
C892        C  0.12942735  0.58767507  0.12510067     0.38030
C893        C  0.18629579  0.62037794  0.08247181     0.36460
C894        C  0.14694253  0.49650069  0.14397234     0.36460
N895        N  0.19283749  0.64459627  0.06753296    -0.38360
N896        N  0.13784602  0.96974796  0.14846540    -0.38360
N897        N  0.11310991  0.59848142  0.12281379    -0.37810
N898        N  0.22064753  0.51845403  0.10092036    -0.37810
C899        C  0.32950662  0.71085705  0.09128419    -0.04470
C900        C  0.33673225  0.70692140  0.13391257    -0.01590
C901        C  0.34976974  0.73288364  0.16257592     0.03400
C902        C  0.35414251  0.76249478  0.14937627    -0.04470
C903        C  0.34515231  0.76590456  0.10757924    -0.01580
C904        C  0.33301767  0.74032306  0.07864771     0.03390
C905        C  0.32829235  0.67568234  0.14933672     0.38040
C906        C  0.34936342  0.79620549  0.09374507     0.38030
C907        C  0.32434607  0.74464273  0.03567486     0.36460
C908        C  0.35827448  0.72903017  0.20578390     0.36460
N909        N  0.31722682  0.74825346  0.50164958    -0.38360
N910        N  0.36526377  0.72601765  0.24017911    -0.38360
N911        N  0.35268374  0.82034667  0.08283779    -0.37810
N912        N  0.32081577  0.65067831  0.16219079    -0.37810
C913        C  0.35611792  0.76291108  0.35067745    -0.04470
C914        C  0.32752559  0.73539130  0.33998077    -0.01590
C915        C  0.31352281  0.70989693  0.36915674     0.03400
C916        C  0.32896567  0.71105585  0.40817331    -0.04470
C917        C  0.35771014  0.73879598  0.41854660    -0.01580
C918        C  0.37025544  0.76496245  0.39086952     0.03390
C919        C  0.31236924  0.73337027  0.29915938     0.38040
C920        C  0.37398371  0.74134547  0.45865888     0.38030
C921        C  0.39606819  0.79510176  0.40555054     0.36460
C922        C  0.28323873  0.68262441  0.35879480     0.36460
N923        N  0.41595628  0.81937564  0.41761402    -0.38360
N924        N  0.25880388  0.66120180  0.35062125    -0.38360
N925        N  0.38716648  0.74349013  0.49043955    -0.37810
N926        N  0.30022201  0.73183587  0.26666514    -0.37810
C927        C  0.14014895  0.54787990  0.35164478    -0.04470
C928        C  0.13621614  0.55096487  0.39576776    -0.01590
C929        C  0.16241029  0.56370066  0.42352026     0.03400
C930        C  0.19293542  0.57395372  0.40731054    -0.04470
C931        C  0.19703773  0.57185299  0.36285769    -0.01580
C932        C  0.17058231  0.55843650  0.33510589     0.03390
C933        C  0.10493043  0.54042489  0.41278342     0.38040
C934        C  0.22848098  0.58483233  0.34543134     0.38030
C935        C  0.17460022  0.55581566  0.28957245     0.36460
C936        C  0.15760879  0.56540966  0.46905659     0.36460
N937        N  0.17774904  0.55368630  0.25321659    -0.38360
N938        N  0.15322254  0.56647933  0.00524680    -0.38360
N939        N  0.25356280  0.59557514  0.33124540    -0.37810
N940        N  0.07997428  0.53204868  0.42618169    -0.37810
C941        C  0.04893027  0.64014701  0.14629340    -0.04470
C942        C  0.03491016  0.63975412  0.10643072    -0.01590
C943        C  0.04850132  0.66653797  0.07984639     0.03400
C944        C  0.07663614  0.69402008  0.09233516    -0.04470
C945        C  0.09105549  0.69440547  0.13178743    -0.01580
C946        C  0.07699808  0.66768534  0.15903115     0.03390
C947        C  0.00673780  0.61135317  0.09198055     0.38040
C948        C  0.11989704  0.72253819  0.14475729     0.38030
C949        C  0.09079889  0.66900518  0.20069523     0.36460
C950        C  0.03392905  0.66523081  0.03867082     0.36460
N951        N  0.10178671  0.67006401  0.23397347    -0.38360
N952        N  0.02218270  0.66406344  0.50596492    -0.38360
N953        N  0.14296475  0.74499068  0.15496132    -0.37810
N954        N  0.98424028  0.58876167  0.08060686    -0.37810
C955        C  0.04872718  0.64373381  0.34796627    -0.04470
C956        C  0.03083638  0.65725602  0.36492031    -0.01590
C957        C  0.04471453  0.68407035  0.39218630     0.03400
C958        C  0.07631488  0.69717436  0.40674920    -0.04470
C959        C  0.09409105  0.68352947  0.39127832    -0.01580
C960        C  0.08028718  0.65658206  0.36419199     0.03390
C961        C  0.99696814  0.64261758  0.35883004     0.38040
C962        C  0.12698693  0.69645317  0.40369826     0.38030
C963        C  0.09876318  0.64109193  0.35795303     0.36460
C964        C  0.02530037  0.69742207  0.40569297     0.36460
N965        N  0.11436710  0.62957236  0.35420476    -0.38360
N966        N  0.00953217  0.70765179  0.41632713    -0.38360
N967        N  0.15312868  0.70640900  0.41331669    -0.37810
N968        N  0.47002656  0.63191452  0.35464801    -0.37810
C969        C  0.35297541  0.54623290  0.15045528    -0.04470
C970        C  0.33034297  0.52664579  0.11934559    -0.01590
C971        C  0.31657064  0.53912685  0.09138278     0.03400
C972        C  0.32690253  0.57189957  0.09161168    -0.04470
C973        C  0.35028456  0.59163318  0.12170454    -0.01580
C974        C  0.36148332  0.57851361  0.15272067     0.03390
C975        C  0.32212619  0.49378879  0.11416568     0.38040
C976        C  0.36423749  0.62573755  0.11991581     0.38030
C977        C  0.38102139  0.59830997  0.18765404     0.36460
C978        C  0.29333940  0.51828493  0.06021752     0.36460
N979        N  0.39654473  0.61417369  0.21549202    -0.38360
N980        N  0.27479401  0.50154831  0.03553492    -0.38360
N981        N  0.37636359  0.65301372  0.11789234    -0.37810
N982        N  0.31567167  0.96765633  0.10973365    -0.37810
C983        C  0.33283852  0.57703184  0.40610283    -0.04470
C984        C  0.31471091  0.55736891  0.37169436    -0.01590
C985        C  0.32834574  0.54585986  0.34198255     0.03400
C986        C  0.35908153  0.55089296  0.34901416    -0.04470
C987        C  0.37649552  0.56897408  0.38494069    -0.01580
C988        C  0.36399604  0.58302951  0.41220209     0.03390
C989        C  0.28158608  0.54763432  0.36768972     0.38040
C990        C  0.40628724  0.57101457  0.39608423     0.38030
C991        C  0.38252732  0.60175475  0.44854077     0.36460
C992        C  0.31071742  0.52908778  0.30402439     0.36460
N993        N  0.39732810  0.61667757  0.47747497    -0.38360
N994        N  0.29664881  0.51573230  0.27374517    -0.38360
N995        N  0.42974620  0.57214482  0.40533017    -0.37810
N996        N  0.25487526  0.53874400  0.36492852    -0.37810
C997        C  0.35851877  0.84288568  0.75200998     0.01430
C998        C  0.34191205  0.85805750  0.75278071     0.01430
C999        C  0.43606993  0.83853450  0.74791845     0.01430
C1000       C  0.46779026  0.85318151  0.74750381     0.01430
C1001       C  0.46734959  0.56430941  0.74423015     0.01430
C1002       C  0.43559899  0.54882192  0.74424671     0.01430
C1003       C  0.37243701  0.53531257  0.82160869     0.03990
C1004       C  0.40235873  0.55323926  0.80224404    -0.12160
C1005       C  0.41747373  0.53759202  0.78528876     0.01490
C1006       C  0.40391834  0.50522387  0.79426092    -0.10680
C1007       C  0.37087800  0.48794864  0.79395566     0.03980
C1008       C  0.35560101  0.50231556  0.81397639    -0.10100
H1009       H  0.41302643  0.57865189  0.79910859     0.09580
H1010       H  0.41629552  0.49328554  0.78350023     0.07110
H1011       H  0.33070332  0.48831662  0.82099592     0.06960
C1012       C  0.36925043  0.53320122  0.67758271     0.03990
C1013       C  0.40241120  0.54979299  0.68394772    -0.12160
C1014       C  0.41680869  0.53447685  0.70402611     0.01490
C1015       C  0.39952429  0.50140634  0.70361030    -0.10680
C1016       C  0.36744512  0.48803914  0.71329581     0.03980
C1017       C  0.35181180  0.50363530  0.69814029    -0.10100
H1018       H  0.41682548  0.57441207  0.67537302     0.09580
H1019       H  0.41143934  0.48883980  0.71377225     0.07110
H1020       H  0.32669006  0.49335389  0.70314171     0.06960
C1021       C  0.35654746  0.96942006  0.75366279     0.01430
C1022       C  0.34126118  0.93766017  0.75284022     0.01430
C1023       C  0.03351538  0.61470371  0.81794158     0.03990
C1024       C  0.00306029  0.60270041  0.79935723    -0.12160
C1025       C  0.98618119  0.57126991  0.78468379     0.01490
C1026       C  0.99986729  0.55245005  0.79239037    -0.10680
C1027       C  0.03259869  0.56811543  0.78687733     0.03980
C1028       C  0.04961586  0.59933213  0.80209797    -0.10100
H1029       H  0.99477989  0.61856331  0.78980346     0.09580
H1030       H  0.98651734  0.52771566  0.78343459     0.07110
H1031       H  0.07410255  0.61282051  0.79332585     0.06960
C1032       C  0.03368628  0.61123381  0.67349590     0.03990
C1033       C  0.00217777  0.59894886  0.68669577    -0.12160
C1034       C  0.48581413  0.56859451  0.70441409     0.01490
C1035       C  0.99989237  0.54970650  0.70109386    -0.10680
C1036       C  0.03277287  0.56548019  0.70597121     0.03980
C1037       C  0.04985379  0.59548584  0.68693807    -0.10100
H1038       H  0.49127487  0.61356824  0.68546194     0.09580
H1039       H  0.98664356  0.52564373  0.71275784     0.07110
H1040       H  0.07529740  0.60711009  0.68535170     0.06960
C1041       C  0.04441044  0.55979218  0.74763799     0.01430
C1042       C  0.06094295  0.54456822  0.74995691     0.01430
C1043       C  0.11174178  0.53260236  0.82395237     0.03990
C1044       C  0.09714020  0.54961182  0.80971490    -0.12160
C1045       C  0.06684952  0.53307598  0.79153974     0.01490
C1046       C  0.05018209  0.50014096  0.79721409    -0.10680
C1047       C  0.06801072  0.48488827  0.79413573     0.03980
C1048       C  0.09834784  0.50054311  0.81224547    -0.10100
H1049       H  0.11002040  0.57523059  0.81000144     0.09580
H1050       H  0.02601319  0.48736765  0.78598238     0.07110
H1051       H  0.11205306  0.48872316  0.81461381     0.06960
C1052       C  0.37078536  0.79087711  0.82199795     0.03990
C1053       C  0.35473895  0.80716318  0.81115797    -0.12160
C1054       C  0.37156842  0.83701955  0.79214081     0.01490
C1055       C  0.40454311  0.85229871  0.79512405    -0.10680
C1056       C  0.41794729  0.83304942  0.78871545     0.03980
C1057       C  0.40168833  0.80248045  0.80621148    -0.10100
H1058       H  0.32946008  0.79615104  0.81507487     0.09580
H1059       H  0.41780891  0.87666289  0.78468407     0.07110
H1060       H  0.41219465  0.78750178  0.80591692     0.06960
Fe1061     Fe  0.33085848  0.64301974  0.49995811     1.65780
Fe1062     Fe  0.26138128  0.64292156  0.99916333     1.73250
Fe1063     Fe  0.26133400  0.57337922  0.99600446     1.54420
O1064       O  0.29263145  0.57027832  0.95454393    -0.80810
O1065       O  0.23621614  0.61810004  0.55220903    -0.79120
O1066       O  0.33432351  0.61855763  0.94802573    -0.83320
O1067       O  0.33380550  0.61164299  0.54159288    -0.78170
O1068       O  0.23495784  0.57222682  0.94329620    -0.80080
O1069       O  0.29215562  0.67769911  0.54008448    -0.82690
C1070       C  0.31458561  0.58547576  0.55888469     0.98070
C1071       C  0.31889419  0.58949009  0.93767550     1.05510
O1072       O  0.28465423  0.61978862  0.99807728    -1.11670
O1073       O  0.28570868  0.67032542  0.94703049    -0.74110
O1074       O  0.33377243  0.67714728  0.95806969    -0.77590
O1075       O  0.28558515  0.57010509  0.54842473    -0.78280
C1076       C  0.31510521  0.68425861  0.93915123     0.96980
O1077       O  0.33265858  0.67017330  0.55253682    -0.76240
O1078       O  0.22611882  0.61174339  0.95831744    -0.81430
C1079       C  0.22135526  0.58856297  0.55921733     0.99600
C1080       C  0.22005966  0.58702079  0.93743906     1.05520
O1081       O  0.22648047  0.56960902  0.53733117    -0.77080
C1082       C  0.31730367  0.68434995  0.55988694     1.03820
C1083       C  0.36965960  0.79078062  0.67763504     0.03990
C1084       C  0.35299121  0.80550720  0.69299515    -0.12160
C1085       C  0.36989273  0.83595987  0.71099005     0.01490
C1086       C  0.40262823  0.85232469  0.70474464    -0.10680
C1087       C  0.41743474  0.83408264  0.70782898     0.03980
C1088       C  0.40165060  0.80390894  0.68914455    -0.10100
H1089       H  0.32746001  0.79281743  0.69302276     0.09580
H1090       H  0.41576317  0.87671801  0.71526089     0.07110
H1091       H  0.41341712  0.79019643  0.68603281     0.06960
C1092       C  0.11309122  0.53030199  0.67852677     0.03990
C1093       C  0.09930906  0.54772281  0.69513123    -0.12160
C1094       C  0.06836435  0.53182437  0.71093379     0.01490
C1095       C  0.05161906  0.49892268  0.70599516    -0.10680
C1096       C  0.06953207  0.48426091  0.71338193     0.03980
C1097       C  0.10036962  0.49964175  0.69697358    -0.10100
H1098       H  0.11350606  0.57292484  0.70054025     0.09580
H1099       H  0.02710277  0.48641006  0.71550580     0.07110
H1100       H  0.11529021  0.49020777  0.70591756     0.06960
C1101       C  0.03362171  0.86841379  0.82093557     0.03990
C1102       C  0.00361616  0.85010338  0.80175518    -0.12160
C1103       C  0.98688756  0.86484218  0.78762774     0.01490
C1104       C  0.00008181  0.89724115  0.79649070    -0.10680
C1105       C  0.03307040  0.91519636  0.79476586     0.03980
C1106       C  0.04944743  0.90151017  0.81383858    -0.10100
H1107       H  0.99373028  0.82487261  0.79719833     0.09580
H1108       H  0.98690886  0.90861718  0.78673173     0.07110
H1109       H  0.07426829  0.91628002  0.82090736     0.06960
C1110       C  0.03406018  0.87052991  0.67971557     0.03990
C1111       C  0.00174513  0.85226904  0.68930707    -0.12160
C1112       C  0.98631318  0.86710038  0.70755017     0.01490
C1113       C  0.00212710  0.90027446  0.70582979    -0.10680
C1114       C  0.03475289  0.91562189  0.71340515     0.03980
C1115       C  0.05123220  0.90162047  0.69588327    -0.10100
H1116       H  0.98949528  0.82680676  0.68538707     0.09580
H1117       H  0.98950930  0.91196973  0.71659486     0.07110
H1118       H  0.07675408  0.91384776  0.69691082     0.06960
Fe1119     Fe  0.07517569  0.76306375  0.00390866     1.65780
Fe1120     Fe  0.14410230  0.83378109  0.50370861     1.73250
Fe1121     Fe  0.14535290  0.76389888  0.50209095     1.54410
O1122       O  0.11859130  0.73244979  0.54990766    -0.80810
O1123       O  0.17538629  0.83752304  0.95717504    -0.79120
O1124       O  0.07269319  0.73175881  0.54978782    -0.83320
O1125       O  0.07231334  0.73297742  0.95587159    -0.78170
O1126       O  0.17707585  0.79234148  0.54812576    -0.79950
O1127       O  0.11645901  0.83675524  0.95567580    -0.82690
C1128       C  0.08951221  0.72270674  0.94095929     0.98070
C1129       C  0.09052957  0.72162164  0.56302521     1.05510
O1130       O  0.12159843  0.78694851  0.50355350    -1.11670
O1131       O  0.11573574  0.83673385  0.54982455    -0.74110
O1132       O  0.07145457  0.79001831  0.55205455    -0.77590
O1133       O  0.11707295  0.73260059  0.95543816    -0.78280
C1134       C  0.08848217  0.81835692  0.56449688     0.96980
O1135       O  0.07167638  0.79081041  0.95726724    -0.76240
O1136       O  0.17473047  0.83687227  0.55172965    -0.81430
C1137       C  0.18514450  0.82000839  0.94154835     0.99600
C1138       C  0.18596805  0.81958131  0.56351266     1.05520
O1139       O  0.17512326  0.79182188  0.95391742    -0.77080
C1140       C  0.08866438  0.81835581  0.94225340     1.03820
C1141       C  0.29120288  0.87187727  0.82413897     0.03990
C1142       C  0.30617890  0.85453333  0.81254657    -0.12160
C1143       C  0.33625046  0.87055176  0.79379758     0.01490
C1144       C  0.35287239  0.90355650  0.79821743    -0.10680
C1145       C  0.33503008  0.91855560  0.79257618     0.03980
C1146       C  0.30428266  0.90308609  0.80868526    -0.10100
H1147       H  0.29437321  0.82910439  0.81614282     0.09580
H1148       H  0.37723625  0.91610440  0.78806698     0.07110
H1149       H  0.29032389  0.91470205  0.80798709     0.06960
C1150       C  0.29164298  0.87304582  0.68066321     0.03990
C1151       C  0.30535455  0.85511690  0.69454394    -0.12160
C1152       C  0.33565408  0.87080742  0.71260879     0.01490
C1153       C  0.35296763  0.90375592  0.70759905    -0.10680
C1154       C  0.33574408  0.91953136  0.71198541     0.03980
C1155       C  0.30554206  0.90491911  0.69353617    -0.10100
H1156       H  0.29204537  0.82951161  0.69333621     0.09580
H1157       H  0.37728060  0.91594981  0.71824340     0.07110
H1158       H  0.29245806  0.91739661  0.69150600     0.06960
C1159       C  0.04626373  0.93400887  0.75437779     0.01430
C1160       C  0.06279453  0.96586073  0.75425974     0.01430
C1161       C  0.26283538  0.85856309  0.85230740    -0.04470
C1162       C  0.23552392  0.82914843  0.84350348    -0.01590
C1163       C  0.20964321  0.81686658  0.87192660     0.03400
C1164       C  0.21078942  0.83386854  0.90923870    -0.04470
C1165       C  0.23753819  0.86385151  0.91702342    -0.01580
C1166       C  0.26355048  0.87580255  0.88928599     0.03390
C1167       C  0.23359908  0.81169255  0.80490646     0.38040
C1168       C  0.23907658  0.88218661  0.95461628     0.38030
C1169       C  0.29172402  0.90542053  0.90024289     0.36460
C1170       C  0.18125425  0.78737082  0.86174399     0.36460
N1171       N  0.31410559  0.92904528  0.90890783    -0.38360
N1172       N  0.15850708  0.76401716  0.85333068    -0.38360
N1173       N  0.24037843  0.89691675  0.48444197    -0.37810
N1174       N  0.23199260  0.79762285  0.77422076    -0.37810
C1175       C  0.26396233  0.85887738  0.65176506    -0.04470
C1176       C  0.26841716  0.85359956  0.60854419    -0.01590
C1177       C  0.24265281  0.84007883  0.58013710     0.03400
C1178       C  0.21238363  0.83261277  0.59444082    -0.04470
C1179       C  0.20793978  0.83824637  0.63752203    -0.01580
C1180       C  0.23373674  0.85130598  0.66626057     0.03390
C1181       C  0.29985899  0.86324255  0.59288461     0.38040
C1182       C  0.17676335  0.82994044  0.65245067     0.38030
C1183       C  0.22925222  0.85698238  0.71057995     0.36460
C1184       C  0.24750608  0.83431180  0.53592522     0.36460
N1185       N  0.22567176  0.86168149  0.74588700    -0.38360
N1186       N  0.25162953  0.82962579  0.00084596    -0.38360
N1187       N  0.15189958  0.82327305  0.66455819    -0.37810
N1188       N  0.32497903  0.87121409  0.58046587    -0.37810
C1189       C  0.04929427  0.85767792  0.65168163    -0.04470
C1190       C  0.05644738  0.83464040  0.66647943    -0.01590
C1191       C  0.06888514  0.82119812  0.63791832     0.03400
C1192       C  0.07508533  0.83158811  0.59500462    -0.04470
C1193       C  0.06784219  0.85460989  0.58033734    -0.01580
C1194       C  0.05475419  0.86740206  0.60849517     0.03390
C1195       C  0.05113070  0.82495622  0.71098427     0.38040
C1196       C  0.07251069  0.86415515  0.53566551     0.38030
C1197       C  0.04571415  0.88975317  0.59261106     0.36460
C1198       C  0.07500019  0.79653857  0.65244759     0.36460
N1199       N  0.03827483  0.90740037  0.58006750    -0.38360
N1200       N  0.07960476  0.77663564  0.66389515    -0.38360
N1201       N  0.07606480  0.87180996  0.00009844    -0.37810
N1202       N  0.04695648  0.81726461  0.74653047    -0.37810
C1203       C  0.04748727  0.85315713  0.84850430    -0.04470
C1204       C  0.02892461  0.83213923  0.88145097    -0.01590
C1205       C  0.04233380  0.82073341  0.91145707     0.03400
C1206       C  0.07460233  0.82964030  0.90889636    -0.04470
C1207       C  0.09293498  0.84943910  0.87486172    -0.01580
C1208       C  0.07936611  0.86081143  0.84457709     0.03390
C1209       C  0.99577412  0.82229142  0.88553521     0.38040
C1210       C  0.12570190  0.85779614  0.87037348     0.38030
C1211       C  0.09800479  0.87930164  0.80843683     0.36460
C1212       C  0.02279360  0.80095735  0.94633281     0.36460
N1213       N  0.11290326  0.89404750  0.77961999    -0.38360
N1214       N  0.00710756  0.78519354  0.97395177    -0.38360
N1215       N  0.15186917  0.86457553  0.86687468    -0.37810
N1216       N  0.46916644  0.81369218  0.88844862    -0.37810
C1217       C  0.19587237  0.57522633  0.59263015    -0.04470
C1218       C  0.18664886  0.54556555  0.61160470    -0.01590
C1219       C  0.15894306  0.52992859  0.63657593     0.03400
C1220       C  0.14161641  0.54533633  0.64824619    -0.04470
C1221       C  0.15041860  0.57464707  0.62695897    -0.01580
C1222       C  0.17788509  0.58994574  0.60150968     0.03390
C1223       C  0.20567940  0.53057024  0.60558142     0.38040
C1224       C  0.12942576  0.58767291  0.62510218     0.38030
C1225       C  0.18629316  0.62037537  0.58247090     0.36460
C1226       C  0.14694254  0.49649962  0.64397613     0.36460
N1227       N  0.19283442  0.64459350  0.56753179    -0.38360
N1228       N  0.13783564  0.96974567  0.64844519    -0.38360
N1229       N  0.11310816  0.59847911  0.62281584    -0.37810
N1230       N  0.22064543  0.51845170  0.60091803    -0.37810
C1231       C  0.32950468  0.71085510  0.59128328    -0.04470
C1232       C  0.33673023  0.70691935  0.63391165    -0.01590
C1233       C  0.34976897  0.73288186  0.66257453     0.03400
C1234       C  0.35414361  0.76249354  0.64937411    -0.04470
C1235       C  0.34515402  0.76590363  0.60757680    -0.01580
C1236       C  0.33301744  0.74032161  0.57864609     0.03390
C1237       C  0.32828909  0.67568004  0.64933618     0.38040
C1238       C  0.34936785  0.79620534  0.59374138     0.38030
C1239       C  0.32434548  0.74464123  0.53567343     0.36460
C1240       C  0.35827297  0.72902808  0.70578279     0.36460
N1241       N  0.31722777  0.74825502  0.00165082    -0.38360
N1242       N  0.36526166  0.72601531  0.74017825    -0.38360
N1243       N  0.35269049  0.82034718  0.58283296    -0.37810
N1244       N  0.32081165  0.65067585  0.66219042    -0.37810
C1245       C  0.35611662  0.76291076  0.85067625    -0.04470
C1246       C  0.32752451  0.73539048  0.83998038    -0.01590
C1247       C  0.31352256  0.70989642  0.86915695     0.03400
C1248       C  0.32896626  0.71105599  0.90817307    -0.04470
C1249       C  0.35771032  0.73879670  0.91854571    -0.01580
C1250       C  0.37025454  0.76496296  0.89086830     0.03390
C1251       C  0.31236753  0.73336852  0.79915921     0.38040
C1252       C  0.37398445  0.74134699  0.95865773     0.38030
C1253       C  0.39606647  0.79510290  0.90554898     0.36460
C1254       C  0.28323834  0.68262368  0.85879626     0.36460
N1255       N  0.41595378  0.81937733  0.91761209    -0.38360
N1256       N  0.25880330  0.66120100  0.85062376    -0.38360
N1257       N  0.38716766  0.74349231  0.99043821    -0.37810
N1258       N  0.30021973  0.73183331  0.76666518    -0.37810
C1259       C  0.14015039  0.54788131  0.85164773    -0.04470
C1260       C  0.13621778  0.55096641  0.89577071    -0.01590
C1261       C  0.16241204  0.56370225  0.92352293     0.03400
C1262       C  0.19293707  0.57395524  0.90731289    -0.04470
C1263       C  0.19703918  0.57185436  0.86286001    -0.01580
C1264       C  0.17058363  0.55843784  0.83510850     0.03390
C1265       C  0.10493215  0.54042649  0.91278666     0.38040
C1266       C  0.22848232  0.58483349  0.84543336     0.38030
C1267       C  0.17460127  0.55581685  0.78957500     0.36460
C1268       C  0.15761072  0.56541125  0.96905930     0.36460
N1269       N  0.17774989  0.55368737  0.75321912    -0.38360
N1270       N  0.15322059  0.56647781  0.50524407    -0.38360
N1271       N  0.25356404  0.59557608  0.83124715    -0.37810
N1272       N  0.07997608  0.53205033  0.92618516    -0.37810
C1273       C  0.04892520  0.64014408  0.64629489    -0.04470
C1274       C  0.03490382  0.63975051  0.60643290    -0.01590
C1275       C  0.04849317  0.66653465  0.57984906     0.03400
C1276       C  0.07662760  0.69401703  0.59233731    -0.04470
C1277       C  0.09104781  0.69440349  0.63178905    -0.01580
C1278       C  0.07699208  0.66768337  0.65903262     0.03390
C1279       C  0.00673218  0.61134874  0.59198304     0.38040
C1280       C  0.11988838  0.72253748  0.64475836     0.38030
C1281       C  0.09079356  0.66900414  0.70069648     0.36460
C1282       C  0.03391954  0.66522800  0.53867480     0.36460
N1283       N  0.10178190  0.67006373  0.73397457    -0.38360
N1284       N  0.02219320  0.66406578  0.00595996    -0.38360
N1285       N  0.14295515  0.74499120  0.65496187    -0.37810
N1286       N  0.98423526  0.58875649  0.58060968    -0.37810
C1287       C  0.04872403  0.64373232  0.84797081    -0.04470
C1288       C  0.03083318  0.65725419  0.86492571    -0.01590
C1289       C  0.04471126  0.68406805  0.89219287     0.03400
C1290       C  0.07631311  0.69717469  0.90675097    -0.04470
C1291       C  0.09408946  0.68353066  0.89127785    -0.01580
C1292       C  0.08028427  0.65658104  0.86419568     0.03390
C1293       C  0.99696503  0.64261586  0.85883495     0.38040
C1294       C  0.12698720  0.69645802  0.90369041     0.38030
C1295       C  0.09875864  0.64108866  0.85796152     0.36460
C1296       C  0.02529504  0.69741552  0.90570736     0.36460
N1297       N  0.11436084  0.62956690  0.85421669    -0.38360
N1298       N  0.00952528  0.70764197  0.91634760    -0.38360
N1299       N  0.15313036  0.70641660  0.91330333    -0.37810
N1300       N  0.47002349  0.63191309  0.85465282    -0.37810
C1301       C  0.35297664  0.54623401  0.65045203    -0.04470
C1302       C  0.33034499  0.52664674  0.61934154    -0.01590
C1303       C  0.31657149  0.53912703  0.59137959     0.03400
C1304       C  0.32690198  0.57189937  0.59160942    -0.04470
C1305       C  0.35028377  0.59163339  0.62170228    -0.01580
C1306       C  0.36148336  0.57851438  0.65271805     0.03390
C1307       C  0.32213027  0.49379045  0.61415977     0.38040
C1308       C  0.36423558  0.62573765  0.61991396     0.38030
C1309       C  0.38102095  0.59831093  0.68765159     0.36460
C1310       C  0.29334046  0.51828483  0.56021431     0.36460
N1311       N  0.39654391  0.61417489  0.71548964    -0.38360
N1312       N  0.27479521  0.50154798  0.53553175    -0.38360
N1313       N  0.37636083  0.65301378  0.61789078    -0.37810
N1314       N  0.31567660  0.96765957  0.60972997    -0.37810
C1315       C  0.33283838  0.57703116  0.90610370    -0.04470
C1316       C  0.31470968  0.55736795  0.87169600    -0.01590
C1317       C  0.32834327  0.54585788  0.84198368     0.03400
C1318       C  0.35907878  0.55088994  0.84901423    -0.04470
C1319       C  0.37649365  0.56897098  0.88494043    -0.01580
C1320       C  0.36399558  0.58302775  0.91220195     0.03390
C1321       C  0.28158495  0.54763409  0.86769268     0.38040
C1322       C  0.40628490  0.57101022  0.89608348     0.38030
C1323       C  0.38252802  0.60175335  0.94853966     0.36460
C1324       C  0.31071402  0.52908612  0.80402592     0.36460
N1325       N  0.39732976  0.61667651  0.97747305    -0.38360
N1326       N  0.29664463  0.51573092  0.77374701    -0.38360
N1327       N  0.42974350  0.57213952  0.90532890    -0.37810
N1328       N  0.25487418  0.53874428  0.86493257    -0.37810
C1329       C  0.85853312  0.34289138  0.25202016     0.01430
C1330       C  0.84191496  0.35805116  0.25279609     0.01430
C1331       C  0.93607764  0.33852783  0.24792390     0.01430
C1332       C  0.96779862  0.35318515  0.24750689     0.01430
C1333       C  0.96735190  0.06433040  0.24423904     0.01430
C1334       C  0.93560133  0.04883505  0.24425074     0.01430
C1335       C  0.87242339  0.03532534  0.32157839     0.03990
C1336       C  0.90235295  0.05325186  0.30223437    -0.12160
C1337       C  0.91746963  0.03760373  0.28528765     0.01490
C1338       C  0.90390667  0.00523383  0.29425263    -0.10680
C1339       C  0.87086619  0.98796218  0.29392413     0.03980
C1340       C  0.85558428  0.00233028  0.31392940    -0.10100
H1341       H  0.91302632  0.07866572  0.29910879     0.09580
H1342       H  0.91628574  0.99329437  0.28350499     0.07110
H1343       H  0.83068326  0.98833380  0.32092958     0.06960
C1344       C  0.86926731  0.03320072  0.17753235     0.03990
C1345       C  0.90242322  0.04980243  0.18393599    -0.12160
C1346       C  0.91681801  0.03448852  0.20402678     0.01490
C1347       C  0.89954116  0.00141767  0.20360352    -0.10680
C1348       C  0.86745643  0.98804147  0.21325905     0.03980
C1349       C  0.85182212  0.00362728  0.19806868    -0.10100
H1350       H  0.91683201  0.07442756  0.17538572     0.09580
H1351       H  0.91145684  0.98885524  0.21378060     0.07110
H1352       H  0.82669507  0.99333477  0.20303133     0.06960
C1353       C  0.85655358  0.46941401  0.25370421     0.01430
C1354       C  0.84126648  0.43765428  0.25287809     0.01430
C1355       C  0.53352555  0.11471156  0.31795003     0.03990
C1356       C  0.50307503  0.10272080  0.29935634    -0.12160
C1357       C  0.48618210  0.07128834  0.28469268     0.01490
C1358       C  0.49985414  0.05245634  0.29240587    -0.10680
C1359       C  0.53258582  0.06810804  0.28689960     0.03980
C1360       C  0.54961367  0.09932259  0.30212394    -0.10100
H1361       H  0.49480450  0.11859240  0.28980446     0.09580
H1362       H  0.48649584  0.02772266  0.28344915     0.07110
H1363       H  0.57409901  0.11279900  0.29334181     0.06960
C1364       C  0.53369918  0.11124542  0.17351970     0.03990
C1365       C  0.50219093  0.09896821  0.18671413    -0.12160
C1366       C  0.98581823  0.06861299  0.20442658     0.01490
C1367       C  0.49988763  0.04971700  0.20110753    -0.10680
C1368       C  0.53276714  0.06548177  0.20599179     0.03980
C1369       C  0.54985784  0.09548910  0.18696477    -0.10100
H1370       H  0.99129420  0.11359319  0.18547819     0.09580
H1371       H  0.48663165  0.02565400  0.21276875     0.07110
H1372       H  0.57530133  0.10710744  0.18538392     0.06960
C1373       C  0.54439510  0.05978255  0.24765883     0.01430
C1374       C  0.56092540  0.04455636  0.24997619     0.01430
C1375       C  0.61171735  0.03258619  0.32397628     0.03990
C1376       C  0.59711512  0.04959529  0.30974072    -0.12160
C1377       C  0.56682712  0.03305973  0.29155826     0.01490
C1378       C  0.55016081  0.00012410  0.29722565    -0.10680
C1379       C  0.56799160  0.98487382  0.29414701     0.03980
C1380       C  0.59832691  0.00052851  0.31226260    -0.10100
H1381       H  0.60999348  0.07521408  0.31003322     0.09580
H1382       H  0.52599306  0.98735073  0.28598947     0.07110
H1383       H  0.61203402  0.98871047  0.31462905     0.06960
C1384       C  0.87079058  0.29087771  0.32200434     0.03990
C1385       C  0.85474990  0.30716969  0.31116802    -0.12160
C1386       C  0.87158332  0.33702461  0.29214949     0.01490
C1387       C  0.90455775  0.35229870  0.29513101    -0.10680
C1388       C  0.91795652  0.33304466  0.28872177     0.03980
C1389       C  0.90169251  0.30247538  0.30621673    -0.10100
H1390       H  0.82947160  0.29616237  0.31508705     0.09580
H1391       H  0.91782667  0.37666248  0.28469026     0.07110
H1392       H  0.91219415  0.28749253  0.30592082     0.06960
Fe1393     Fe  0.83084404  0.14302140  0.99995728     1.65780
Fe1394     Fe  0.76136682  0.14291877  0.49916786     1.73250
Fe1395     Fe  0.76132536  0.07337596  0.49600483     1.54420
O1396       O  0.79261451  0.07028163  0.45452104    -0.80810
O1397       O  0.73619923  0.11809399  0.05222022    -0.79120
O1398       O  0.83431144  0.11856039  0.44801911    -0.83320
O1399       O  0.83380168  0.11165093  0.04158741    -0.78170
O1400       O  0.73493300  0.07221792  0.44331372    -0.80080
O1401       O  0.79213711  0.17769465  0.04010077    -0.82690
C1402       C  0.81459024  0.08547543  0.05886550     0.98070
C1403       C  0.81887893  0.08949487  0.43765761     1.05510
O1404       O  0.78464221  0.11978677  0.49807845    -1.11670
O1405       O  0.78569399  0.17032862  0.44703788    -0.74110
O1406       O  0.83375675  0.17714735  0.45806930    -0.77590
O1407       O  0.78558932  0.07009645  0.04840906    -0.78280
C1408       C  0.81509011  0.18426103  0.43915616     0.96980
O1409       O  0.83264645  0.17017606  0.05253792    -0.76240
O1410       O  0.72610579  0.11174432  0.45831938    -0.81430
C1411       C  0.72134737  0.08855834  0.05924001     0.99600
C1412       C  0.72004022  0.08701642  0.43745073     1.05520
O1413       O  0.72647990  0.06960511  0.03736328    -0.77080
C1414       C  0.81728803  0.18434811  0.05989678     1.03820
C1415       C  0.86965951  0.29077846  0.17764520     0.03990
C1416       C  0.85299694  0.30551193  0.19300266    -0.12160
C1417       C  0.86990369  0.33596419  0.21099789     0.01490
C1418       C  0.90263912  0.35232286  0.20475169    -0.10680
C1419       C  0.91743983  0.33407524  0.20783679     0.03980
C1420       C  0.90164951  0.30390028  0.18915612    -0.10100
H1421       H  0.82746576  0.29282712  0.19302930     0.09580
H1422       H  0.91577827  0.37671619  0.21526684     0.07110
H1423       H  0.91341073  0.29018254  0.18604682     0.06960
C1424       C  0.61307990  0.03029708  0.17854583     0.03990
C1425       C  0.59929647  0.04771673  0.19515170    -0.12160
C1426       C  0.56835059  0.03181665  0.21095145     0.01490
C1427       C  0.55160614  0.99891547  0.20600717    -0.10680
C1428       C  0.56951916  0.98425364  0.21339299     0.03980
C1429       C  0.60035749  0.99963581  0.19698849    -0.10100
H1430       H  0.61349282  0.07291850  0.20056342     0.09580
H1431       H  0.52708910  0.98640148  0.21551420     0.07110
H1432       H  0.61527791  0.99020185  0.20593321     0.06960
C1433       C  0.53363357  0.36842421  0.32093621     0.03990
C1434       C  0.50362785  0.35011226  0.30175700    -0.12160
C1435       C  0.48689772  0.36484925  0.28762908     0.01490
C1436       C  0.50009138  0.39724862  0.29648923    -0.10680
C1437       C  0.53307997  0.41520493  0.29476218     0.03980
C1438       C  0.54945852  0.40152025  0.31383543    -0.10100
H1439       H  0.49374249  0.32488133  0.29720257     0.09580
H1440       H  0.48691723  0.40862335  0.28673033     0.07110
H1441       H  0.57427960  0.41629083  0.32090236     0.06960
C1442       C  0.53406594  0.37053372  0.17971592     0.03990
C1443       C  0.50175111  0.35227251  0.18930812    -0.12160
C1444       C  0.48631887  0.36710349  0.20755120     0.01490
C1445       C  0.50213183  0.40027754  0.20582885    -0.10680
C1446       C  0.53475809  0.41562645  0.21340151     0.03980
C1447       C  0.55123754  0.40162511  0.19588038    -0.10100
H1448       H  0.48950193  0.32681009  0.18538994     0.09580
H1449       H  0.48951371  0.41197249  0.21659381     0.07110
H1450       H  0.57675949  0.41385310  0.19690668     0.06960
Fe1451     Fe  0.57517520  0.26306827  0.50391727     1.65780
Fe1452     Fe  0.64411324  0.33378591  0.00371584     1.73250
Fe1453     Fe  0.64536156  0.26390222  0.00211019     1.54410
O1454       O  0.61862689  0.23248726  0.04997114    -0.80810
O1455       O  0.67539919  0.33752239  0.45721287    -0.79120
O1456       O  0.57270208  0.23174006  0.04975406    -0.83320
O1457       O  0.57231955  0.23300076  0.45585818    -0.78170
O1458       O  0.67711246  0.29237267  0.04810004    -0.79950
O1459       O  0.61647344  0.33675844  0.45567256    -0.82690
C1460       C  0.58950938  0.22270875  0.44097888     0.98070
C1461       C  0.59054974  0.22162995  0.06304006     1.05510
O1462       O  0.62160915  0.28695435  0.00356422    -1.11670
O1463       O  0.61572801  0.33674160  0.04979933    -0.74110
O1464       O  0.57147397  0.29000513  0.05210160    -0.77590
O1465       O  0.61705833  0.23258197  0.45548971    -0.78280
C1466       C  0.58848828  0.31835552  0.06450685     0.96980
O1467       O  0.57167824  0.29082798  0.45729475    -0.76240
O1468       O  0.67472017  0.33687534  0.05176723    -0.81430
C1469       C  0.68514504  0.32000115  0.44157277     0.99600
C1470       C  0.68598274  0.31959934  0.06351734     1.05520
O1471       O  0.67510880  0.29180827  0.45392589    -0.77080
C1472       C  0.58867264  0.31836685  0.44226508     1.03820
C1473       C  0.79120845  0.37186708  0.32416870     0.03990
C1474       C  0.80618137  0.35452212  0.31256597    -0.12160
C1475       C  0.83625292  0.37054115  0.29381652     0.01490
C1476       C  0.85287749  0.40354524  0.29824379    -0.10680
C1477       C  0.83503725  0.41854716  0.29261109     0.03980
C1478       C  0.80429054  0.40307815  0.30872272    -0.10100
H1479       H  0.79437382  0.32909259  0.31615557     0.09580
H1480       H  0.87724093  0.41609262  0.28809150     0.07110
H1481       H  0.79033362  0.41469617  0.30803137     0.06960
C1482       C  0.79164304  0.37304611  0.18069380     0.03990
C1483       C  0.80535460  0.35511533  0.19456648    -0.12160
C1484       C  0.83565502  0.37080380  0.21262864     0.01490
C1485       C  0.85296845  0.40375281  0.20762459    -0.10680
C1486       C  0.83574527  0.41952798  0.21202033     0.03980
C1487       C  0.80554214  0.40491765  0.19357482    -0.10100
H1488       H  0.79204572  0.32951018  0.19335223     0.09580
H1489       H  0.87728194  0.41594553  0.21826683     0.07110
H1490       H  0.79245829  0.41739554  0.19155118     0.06960
C1491       C  0.54627098  0.43401570  0.25437198     0.01430
C1492       C  0.56280459  0.46586762  0.25424998     0.01430
C1493       C  0.76284130  0.35855210  0.35233841    -0.04470
C1494       C  0.73552694  0.32914080  0.34352982    -0.01590
C1495       C  0.70964438  0.31686121  0.37194981     0.03400
C1496       C  0.71079265  0.33386032  0.40926604    -0.04470
C1497       C  0.73754517  0.36383991  0.41705621    -0.01580
C1498       C  0.76355838  0.37578933  0.38932054     0.03390
C1499       C  0.73360080  0.31168604  0.30493113     0.38040
C1500       C  0.73908577  0.38217434  0.45465105     0.38030
C1501       C  0.79173452  0.40540375  0.40028220     0.36460
C1502       C  0.68125038  0.28737282  0.36175713     0.36460
N1503       N  0.81411800  0.42902579  0.40895090    -0.38360
N1504       N  0.65849887  0.26402589  0.35333454    -0.38360
N1505       N  0.74039038  0.39690896  0.98444462    -0.37810
N1506       N  0.73199299  0.29761666  0.27424451    -0.37810
C1507       C  0.76396656  0.35888369  0.15178840    -0.04470
C1508       C  0.76842787  0.35361481  0.10856642    -0.01590
C1509       C  0.74266760  0.34009866  0.08015238     0.03400
C1510       C  0.71239628  0.33263077  0.09444957    -0.04470
C1511       C  0.70794618  0.33825527  0.13753247    -0.01580
C1512       C  0.73373882  0.35130878  0.16627818     0.03390
C1513       C  0.79987220  0.36326113  0.09291368     0.38040
C1514       C  0.67676685  0.32994227  0.15245679     0.38030
C1515       C  0.72924729  0.35697369  0.21059966     0.36460
C1516       C  0.74752738  0.33433609  0.03594143     0.36460
N1517       N  0.72566092  0.36166324  0.24590854    -0.38360
N1518       N  0.75161680  0.32959956  0.50087515    -0.38360
N1519       N  0.65190052  0.32326859  0.16456048    -0.37810
N1520       N  0.82499424  0.37123523  0.08050090    -0.37810
C1521       C  0.54930067  0.35768091  0.15168519    -0.04470
C1522       C  0.55645038  0.33464148  0.16648498    -0.01590
C1523       C  0.56888738  0.32119726  0.13792604     0.03400
C1524       C  0.57509119  0.33158793  0.09501270    -0.04470
C1525       C  0.56785360  0.35461371  0.08034451    -0.01580
C1526       C  0.55476514  0.36740673  0.10849979     0.03390
C1527       C  0.55113225  0.32495837  0.21099021     0.38040
C1528       C  0.57252774  0.36416245  0.03567399     0.38030
C1529       C  0.54572904  0.38976041  0.09261374     0.36460
C1530       C  0.57500082  0.29653731  0.15245855     0.36460
N1531       N  0.53829283  0.40740955  0.08006841    -0.38360
N1532       N  0.57960436  0.27663428  0.16390884    -0.38360
N1533       N  0.57605357  0.37180344  0.50010300    -0.37810
N1534       N  0.54695728  0.31726792  0.24653683    -0.37810
C1535       C  0.54749881  0.35316907  0.34850905    -0.04470
C1536       C  0.52893526  0.33215264  0.38145634    -0.01590
C1537       C  0.54234295  0.32074655  0.41146446     0.03400
C1538       C  0.57461162  0.32965212  0.40890605    -0.04470
C1539       C  0.59294486  0.34944913  0.37486994    -0.01580
C1540       C  0.57937725  0.36082186  0.34458361     0.03390
C1541       C  0.49578493  0.32230625  0.38553881     0.38040
C1542       C  0.62571090  0.35780326  0.37038082     0.38030
C1543       C  0.59801672  0.37931061  0.30844302     0.36460
C1544       C  0.52279991  0.30097037  0.44633829     0.36460
N1545       N  0.61291600  0.39405527  0.27962597    -0.38360
N1546       N  0.50711116  0.28520615  0.47395509    -0.38360
N1547       N  0.65187742  0.36458004  0.36688146    -0.37810
N1548       N  0.96917741  0.31370823  0.38845040    -0.37810
C1549       C  0.69586518  0.07522264  0.09265505    -0.04470
C1550       C  0.68664105  0.04556191  0.11163027    -0.01590
C1551       C  0.65893344  0.02992426  0.13659801     0.03400
C1552       C  0.64160686  0.04533224  0.14826818    -0.04470
C1553       C  0.65041085  0.07464394  0.12698338    -0.01580
C1554       C  0.67787808  0.08994265  0.10153537     0.03390
C1555       C  0.70567275  0.03056735  0.10561144     0.38040
C1556       C  0.62941875  0.08767068  0.12512706     0.38030
C1557       C  0.68628748  0.12037388  0.08250086     0.36460
C1558       C  0.64693059  0.99649426  0.14399255     0.36460
N1559       N  0.69282958  0.14459342  0.06756577    -0.38360
N1560       N  0.63785965  0.46975498  0.14844821    -0.38360
N1561       N  0.61310170  0.09847750  0.12284062    -0.37810
N1562       N  0.72064035  0.01845014  0.10095141    -0.37810
C1563       C  0.82948904  0.21085232  0.09129444    -0.04470
C1564       C  0.83670088  0.20691140  0.13392745    -0.01590
C1565       C  0.84974810  0.23287487  0.16258881     0.03400
C1566       C  0.85413864  0.26249174  0.14938399    -0.04470
C1567       C  0.84515658  0.26590588  0.10758380    -0.01580
C1568       C  0.83301398  0.24032299  0.07865404     0.03390
C1569       C  0.82823133  0.17566630  0.14935885     0.38040
C1570       C  0.84938413  0.29621218  0.09374491     0.38030
C1571       C  0.82434362  0.24464426  0.03568139     0.36460
C1572       C  0.85824574  0.22901713  0.20579884     0.36460
N1573       N  0.81723278  0.24826011  0.50165407    -0.38360
N1574       N  0.86523009  0.22600089  0.24019529    -0.38360
N1575       N  0.85271782  0.32035780  0.08283388    -0.37810
N1576       N  0.82072935  0.15065762  0.16221820    -0.37810
C1577       C  0.85611650  0.26291187  0.35068216    -0.04470
C1578       C  0.82751995  0.23539625  0.33998694    -0.01590
C1579       C  0.81351166  0.20990368  0.36916480     0.03400
C1580       C  0.82895327  0.21105974  0.40818103    -0.04470
C1581       C  0.85770111  0.23879642  0.41855384    -0.01580
C1582       C  0.87025165  0.26496190  0.39087544     0.03390
C1583       C  0.81236467  0.23337782  0.29916553     0.38040
C1584       C  0.87397356  0.24134356  0.45866648     0.38030
C1585       C  0.89606703  0.29509951  0.40555666     0.36460
C1586       C  0.78322338  0.18263625  0.35880534     0.36460
N1587       N  0.91595668  0.31937222  0.41762098    -0.38360
N1588       N  0.75878511  0.16121809  0.35063382    -0.38360
N1589       N  0.88715548  0.24348654  0.49044737    -0.37810
N1590       N  0.80021816  0.23184533  0.26667132    -0.37810
C1591       C  0.64012626  0.04786596  0.35167029    -0.04470
C1592       C  0.63619434  0.05094441  0.39579541    -0.01590
C1593       C  0.66239060  0.06368559  0.42354425     0.03400
C1594       C  0.69291606  0.07394935  0.40732847    -0.04470
C1595       C  0.69701722  0.07185595  0.36287389    -0.01580
C1596       C  0.67056016  0.05843449  0.33512562     0.03390
C1597       C  0.60490796  0.04039346  0.41281638     0.38040
C1598       C  0.72846046  0.08484783  0.34544280     0.38030
C1599       C  0.67457686  0.05582037  0.28959016     0.36460
C1600       C  0.65759193  0.06539130  0.46908226     0.36460
N1601       N  0.67772497  0.05369630  0.25323281    -0.38360
N1602       N  0.65319840  0.06646748  0.00527037    -0.38360
N1603       N  0.75354209  0.09560058  0.33125318    -0.37810
N1604       N  0.57995124  0.03200854  0.42621892    -0.37810
C1605       C  0.54894347  0.14015311  0.14631474    -0.04470
C1606       C  0.53492316  0.13975846  0.10645169    -0.01590
C1607       C  0.54851305  0.16654139  0.07986617     0.03400
C1608       C  0.57664702  0.19402526  0.09235435    -0.04470
C1609       C  0.59106687  0.19441173  0.13180740    -0.01580
C1610       C  0.57701085  0.16769171  0.15905155     0.03390
C1611       C  0.50675076  0.11135665  0.09200304     0.38040
C1612       C  0.61990690  0.22254558  0.14477880     0.38030
C1613       C  0.59081231  0.16901174  0.20071524     0.36460
C1614       C  0.53393966  0.16523053  0.03869020     0.36460
N1615       N  0.60180048  0.17007049  0.23399320    -0.38360
N1616       N  0.52218532  0.16406359  0.50598598    -0.38360
N1617       N  0.64297340  0.24499892  0.15498415    -0.37810
N1618       N  0.48425307  0.08876464  0.08063100    -0.37810
C1619       C  0.54873651  0.14374189  0.34797684    -0.04470
C1620       C  0.53083559  0.15724563  0.36495503    -0.01590
C1621       C  0.54470778  0.18405796  0.39222431     0.03400
C1622       C  0.57631371  0.19717743  0.40676973    -0.04470
C1623       C  0.59410077  0.18355052  0.39127754    -0.01580
C1624       C  0.58030600  0.15661029  0.36417678     0.03390
C1625       C  0.49696421  0.14259059  0.35888171     0.38040
C1626       C  0.62700074  0.19648829  0.40368701     0.38030
C1627       C  0.59880970  0.14115567  0.35788486     0.36460
C1628       C  0.52528000  0.19738771  0.40575790     0.36460
N1629       N  0.61443903  0.12966743  0.35409793    -0.38360
N1630       N  0.50950164  0.20760097  0.41641151    -0.38360
N1631       N  0.65314501  0.20645360  0.41329933    -0.37810
N1632       N  0.97002032  0.13187491  0.35471004    -0.37810
C1633       C  0.85300267  0.04623311  0.15038815    -0.04470
C1634       C  0.83042013  0.02666014  0.11922035    -0.01590
C1635       C  0.81664143  0.03913810  0.09126444     0.03400
C1636       C  0.82691906  0.07189808  0.09156661    -0.04470
C1637       C  0.85026615  0.09162337  0.12170217    -0.01580
C1638       C  0.86146983  0.07850057  0.15270569     0.03390
C1639       C  0.82226814  0.99382642  0.11397583     0.38040
C1640       C  0.86418345  0.12572485  0.11996428     0.38030
C1641       C  0.88097231  0.09827794  0.18767636     0.36460
C1642       C  0.79346761  0.01831536  0.06002748     0.36460
N1643       N  0.89646706  0.11412576  0.21554477    -0.38360
N1644       N  0.77496989  0.00159550  0.03528417    -0.38360
N1645       N  0.87628544  0.15300082  0.11797944    -0.37810
N1646       N  0.81547440  0.46759923  0.10997506    -0.37810
C1647       C  0.83282342  0.07703905  0.40608131    -0.04470
C1648       C  0.81469847  0.05738602  0.37166360    -0.01590
C1649       C  0.82833360  0.04587932  0.34194810     0.03400
C1650       C  0.85906439  0.05090077  0.34898704    -0.04470
C1651       C  0.87647326  0.06896823  0.38492542    -0.01580
C1652       C  0.86397636  0.08302545  0.41218797     0.03390
C1653       C  0.78157522  0.04765656  0.36765505     0.38040
C1654       C  0.90625468  0.07099000  0.39608124     0.38030
C1655       C  0.88250429  0.10173946  0.44853590     0.36460
C1656       C  0.81071110  0.02912191  0.30397907     0.36460
N1657       N  0.89730240  0.11665347  0.47747736    -0.38360
N1658       N  0.79664766  0.01577871  0.27369047    -0.38360
N1659       N  0.92970455  0.07210418  0.40533748    -0.37810
N1660       N  0.75486509  0.03876889  0.36489105    -0.37810
C1661       C  0.85853209  0.34288906  0.75201473     0.01430
C1662       C  0.84191588  0.35805075  0.75278839     0.01430
C1663       C  0.93607514  0.33852301  0.74793041     0.01430
C1664       C  0.96779633  0.35318489  0.74751580     0.01430
C1665       C  0.96734892  0.06432467  0.74424512     0.01430
C1666       C  0.93559845  0.04883364  0.74425617     0.01430
C1667       C  0.87241693  0.03532225  0.82157890     0.03990
C1668       C  0.90234762  0.05324918  0.80223758    -0.12160
C1669       C  0.91746521  0.03760152  0.78529193     0.01490
C1670       C  0.90390129  0.00523118  0.79425464    -0.10680
C1671       C  0.87086077  0.98795983  0.79392271     0.03980
C1672       C  0.85557797  0.00232745  0.81392710    -0.10100
H1673       H  0.91302143  0.07866319  0.79911361     0.09580
H1674       H  0.91628063  0.99329190  0.78350734     0.07110
H1675       H  0.83067667  0.98833063  0.82092524     0.06960
C1676       C  0.86926652  0.03320251  0.67753480     0.03990
C1677       C  0.90242205  0.04980421  0.68394134    -0.12160
C1678       C  0.91681599  0.03448922  0.70403119     0.01490
C1679       C  0.89953945  0.00141842  0.70360466    -0.10680
C1680       C  0.86745434  0.98804164  0.71325775     0.03980
C1681       C  0.85182057  0.00362815  0.69806835    -0.10100
H1682       H  0.91683115  0.07442978  0.67539346     0.09580
H1683       H  0.91145481  0.98885565  0.71378169     0.07110
H1684       H  0.82669327  0.99333520  0.70302906     0.06960
C1685       C  0.85655201  0.46941288  0.75369778     0.01430
C1686       C  0.84126664  0.43765327  0.75286951     0.01430
C1687       C  0.53352183  0.11470769  0.81795401     0.03990
C1688       C  0.50306906  0.10271332  0.79936585    -0.12160
C1689       C  0.48617934  0.07128160  0.78469857     0.01490
C1690       C  0.49985610  0.05245320  0.79240598    -0.10680
C1691       C  0.53258754  0.06810917  0.78689529     0.03980
C1692       C  0.54961288  0.09932392  0.80211986    -0.10100
H1693       H  0.49479512  0.11858265  0.78981665     0.09580
H1694       H  0.48650000  0.02771952  0.78344854     0.07110
H1695       H  0.57409799  0.11280361  0.79333819     0.06960
C1696       C  0.53369154  0.11124352  0.67351929     0.03990
C1697       C  0.50218410  0.09896445  0.68671842    -0.12160
C1698       C  0.98581461  0.06860921  0.70443129     0.01490
C1699       C  0.49988569  0.04971501  0.70110788    -0.10680
C1700       C  0.53276557  0.06548172  0.70598766     0.03980
C1701       C  0.54985306  0.09548903  0.68695980    -0.10100
H1702       H  0.99128580  0.11358809  0.68548605     0.09580
H1703       H  0.48663183  0.02565180  0.71276896     0.07110
H1704       H  0.57529650  0.10710890  0.68537525     0.06960
C1705       C  0.54439680  0.05978486  0.74765341     0.01430
C1706       C  0.56092623  0.04455771  0.74996962     0.01430
C1707       C  0.61171811  0.03258970  0.82397332     0.03990
C1708       C  0.59711569  0.04959800  0.80973537    -0.12160
C1709       C  0.56682824  0.03306148  0.79155170     0.01490
C1710       C  0.55016261  0.00012599  0.79721969    -0.10680
C1711       C  0.56799439  0.98487675  0.79414246     0.03980
C1712       C  0.59832917  0.00053221  0.81225950    -0.10100
H1713       H  0.60999343  0.07521679  0.81002740     0.09580
H1714       H  0.52599503  0.98735189  0.78598295     0.07110
H1715       H  0.61203681  0.98871481  0.81462756     0.06960
C1716       C  0.87078290  0.29087211  0.82200270     0.03990
C1717       C  0.85474342  0.30716465  0.81116263    -0.12160
C1718       C  0.87157887  0.33702009  0.79214583     0.01490
C1719       C  0.90455305  0.35229368  0.79513238    -0.10680
C1720       C  0.91795187  0.33303939  0.78872616     0.03980
C1721       C  0.90168590  0.30246963  0.80621925    -0.10100
H1722       H  0.82946491  0.29615789  0.81507852     0.09580
H1723       H  0.91782308  0.37665764  0.78469261     0.07110
H1724       H  0.91218738  0.28748662  0.80592605     0.06960
Fe1725     Fe  0.83084912  0.14302331  0.49995492     1.65780
Fe1726     Fe  0.76136197  0.14291759  0.99917542     1.73250
Fe1727     Fe  0.76132003  0.07337428  0.99600982     1.54420
O1728       O  0.79260729  0.07027882  0.95452352    -0.80810
O1729       O  0.73620252  0.11809480  0.55221188    -0.79120
O1730       O  0.83430471  0.11855709  0.94802138    -0.83320
O1731       O  0.83380601  0.11165248  0.54158453    -0.78170
O1732       O  0.73492671  0.07221718  0.94332055    -0.80080
O1733       O  0.79214075  0.17769555  0.54009461    -0.82690
C1734       C  0.81459390  0.08547752  0.55886300     0.98070
C1735       C  0.81887166  0.08949157  0.93765965     1.05510
O1736       O  0.78463715  0.11978519  0.99808369    -1.11670
O1737       O  0.78568727  0.17032699  0.94704440    -0.74110
O1738       O  0.83375009  0.17714442  0.95807069    -0.77590
O1739       O  0.78559313  0.07009887  0.54840603    -0.78280
C1740       C  0.81508288  0.18425842  0.93915971     0.96980
O1741       O  0.83264904  0.17017596  0.55253593    -0.76240
O1742       O  0.72609984  0.11174349  0.95832844    -0.81430
C1743       C  0.72135056  0.08855919  0.55923221     0.99600
C1744       C  0.72003429  0.08701615  0.93745852     1.05520
O1745       O  0.72648370  0.06960609  0.53735614    -0.77080
C1746       C  0.81729051  0.18434804  0.55989315     1.03820
C1747       C  0.86965960  0.29077523  0.67764536     0.03990
C1748       C  0.85299749  0.30551030  0.69299832    -0.12160
C1749       C  0.86990437  0.33596220  0.71099415     0.01490
C1750       C  0.90264021  0.35231935  0.70475238    -0.10680
C1751       C  0.91743896  0.33407011  0.70784161     0.03980
C1752       C  0.90164845  0.30389505  0.68916131    -0.10100
H1753       H  0.82746630  0.29282690  0.69302119     0.09580
H1754       H  0.91577968  0.37671250  0.71526824     0.07110
H1755       H  0.91340859  0.29017606  0.68605533     0.06960
C1756       C  0.61308214  0.03030053  0.67853926     0.03990
C1757       C  0.59929712  0.04771917  0.69514377    -0.12160
C1758       C  0.56835146  0.03181806  0.71094451     0.01490
C1759       C  0.55160863  0.99891670  0.70600144    -0.10680
C1760       C  0.56952316  0.98425656  0.71338869     0.03980
C1761       C  0.60036179  0.99964028  0.69698473    -0.10100
H1762       H  0.61349269  0.07292081  0.70055666     0.09580
H1763       H  0.52709156  0.98640174  0.71550823     0.07110
H1764       H  0.61528391  0.99020827  0.70592976     0.06960
C1765       C  0.53363092  0.36842528  0.82094600     0.03990
C1766       C  0.50362443  0.35011293  0.80176879    -0.12160
C1767       C  0.48689462  0.36484984  0.78763884     0.01490
C1768       C  0.50008894  0.39724961  0.79649697    -0.10680
C1769       C  0.53307761  0.41520561  0.79476920     0.03980
C1770       C  0.54945607  0.40152111  0.81384322    -0.10100
H1771       H  0.49373870  0.32488179  0.79721612     0.09580
H1772       H  0.48691489  0.40862431  0.78673755     0.07110
H1773       H  0.57427741  0.41629153  0.82090865     0.06960
C1774       C  0.53406260  0.37053373  0.67972238     0.03990
C1775       C  0.50174820  0.35227242  0.68931640    -0.12160
C1776       C  0.48631651  0.36710350  0.70756033     0.01490
C1777       C  0.50212902  0.40027743  0.70583713    -0.10680
C1778       C  0.53475536  0.41562654  0.71340844     0.03980
C1779       C  0.55123457  0.40162529  0.69588622    -0.10100
H1780       H  0.48949900  0.32680996  0.68539860     0.09580
H1781       H  0.48951093  0.41197239  0.71660209     0.07110
H1782       H  0.57675655  0.41385347  0.69691102     0.06960
Fe1783     Fe  0.57518277  0.26306895  0.00391722     1.65780
Fe1784     Fe  0.64410746  0.33378571  0.50372130     1.73250
Fe1785     Fe  0.64535399  0.26390141  0.50211521     1.54410
O1786       O  0.61861127  0.23247971  0.54996546    -0.80810
O1787       O  0.67540604  0.33752126  0.95721083    -0.79120
O1788       O  0.57269205  0.23174419  0.54976303    -0.83320
O1789       O  0.57232723  0.23300808  0.95584895    -0.78170
O1790       O  0.67709731  0.29236491  0.54811617    -0.79950
O1791       O  0.61648108  0.33675748  0.95566371    -0.82690
C1792       C  0.58951250  0.22270789  0.94097824     0.98070
C1793       C  0.59053672  0.22162852  0.56304180     1.05510
O1794       O  0.62160216  0.28695386  0.50356776    -1.11670
O1795       O  0.61572441  0.33674047  0.54980895    -0.74110
O1796       O  0.57146380  0.29000886  0.55209252    -0.77590
O1797       O  0.61705850  0.23257403  0.95549632    -0.78280
C1798       C  0.58848115  0.31835632  0.56450712     0.96980
O1799       O  0.57168172  0.29083223  0.95730360    -0.76240
O1800       O  0.67471667  0.33687440  0.55176931    -0.81430
C1801       C  0.68514707  0.31999829  0.94156291     0.99600
C1802       C  0.68597293  0.31959446  0.56352701     1.05520
O1803       O  0.67510761  0.29180354  0.95391019    -0.77080
C1804       C  0.58867700  0.31836830  0.94226591     1.03820
C1805       C  0.79120645  0.37186469  0.82415489     0.03990
C1806       C  0.80618019  0.35452028  0.81255467    -0.12160
C1807       C  0.83625248  0.37053999  0.79380795     0.01490
C1808       C  0.85287657  0.40354400  0.79823574    -0.10680
C1809       C  0.83503613  0.41854551  0.79260154     0.03980
C1810       C  0.80428864  0.40307580  0.80870976    -0.10100
H1811       H  0.79437261  0.32909068  0.81614377     0.09580
H1812       H  0.87724033  0.41609174  0.78808478     0.07110
H1813       H  0.79033152  0.41469361  0.80801731     0.06960
C1814       C  0.79164374  0.37304478  0.68068640     0.03990
C1815       C  0.80535609  0.35511461  0.69455858    -0.12160
C1816       C  0.83565665  0.37080335  0.71262025     0.01490
C1817       C  0.85296979  0.40375247  0.70761626    -0.10680
C1818       C  0.83574645  0.41952760  0.71201121     0.03980
C1819       C  0.80554319  0.40491673  0.69356590    -0.10100
H1820       H  0.79204714  0.32950941  0.69334568     0.09580
H1821       H  0.87728312  0.41594533  0.71825927     0.07110
H1822       H  0.79245906  0.41739435  0.69154257     0.06960
C1823       C  0.54626889  0.43401598  0.75437857     0.01430
C1824       C  0.56280465  0.46586788  0.75425574     0.01430
C1825       C  0.76283979  0.35854997  0.85232433    -0.04470
C1826       C  0.73552534  0.32913896  0.84351562    -0.01590
C1827       C  0.70964371  0.31685888  0.87193703     0.03400
C1828       C  0.71079298  0.33385787  0.90925401    -0.04470
C1829       C  0.73754508  0.36383828  0.91704254    -0.01580
C1830       C  0.76355781  0.37578726  0.88930661     0.03390
C1831       C  0.73359836  0.31168527  0.80491538     0.38040
C1832       C  0.73908599  0.38217459  0.95463544     0.38030
C1833       C  0.79173462  0.40540118  0.90026835     0.36460
C1834       C  0.68124966  0.28737040  0.86174484     0.36460
N1835       N  0.81411871  0.42902270  0.90893706    -0.38360
N1836       N  0.65849816  0.26402337  0.85332256    -0.38360
N1837       N  0.74038979  0.39690692  0.48446210    -0.37810
N1838       N  0.73198996  0.29761696  0.77422737    -0.37810
C1839       C  0.76396406  0.35888017  0.65178628    -0.04470
C1840       C  0.76841958  0.35360195  0.60856588    -0.01590
C1841       C  0.74265661  0.34008537  0.58015643     0.03400
C1842       C  0.71238821  0.33262552  0.59445643    -0.04470
C1843       C  0.70794359  0.33825856  0.63753779    -0.01580
C1844       C  0.73373901  0.35131288  0.66627910     0.03390
C1845       C  0.79986094  0.36323945  0.59290927     0.38040
C1846       C  0.67676717  0.32995402  0.65246507     0.38030
C1847       C  0.72925302  0.35698587  0.71059937     0.36460
C1848       C  0.74751077  0.33431498  0.53594647     0.36460
N1849       N  0.72567131  0.36168175  0.74590737    -0.38360
N1850       N  0.75163835  0.32962676  0.00086950    -0.38360
N1851       N  0.65190328  0.32328729  0.66457138    -0.37810
N1852       N  0.82498057  0.37120634  0.58049296    -0.37810
C1853       C  0.54929601  0.35768090  0.65168961    -0.04470
C1854       C  0.55644765  0.33464263  0.66648840    -0.01590
C1855       C  0.56888392  0.32119869  0.63792792     0.03400
C1856       C  0.57508406  0.33158786  0.59501380    -0.04470
C1857       C  0.56784339  0.35461147  0.58034614    -0.01580
C1858       C  0.55475644  0.36740485  0.60850330     0.03390
C1859       C  0.55113169  0.32496001  0.71099391     0.38040
C1860       C  0.57251334  0.36415781  0.53567469     0.38030
C1861       C  0.54571788  0.38975700  0.59261857     0.36460
C1862       C  0.57500002  0.29654028  0.65245935     0.36460
N1863       N  0.53827974  0.40740497  0.58007450    -0.38360
N1864       N  0.57960586  0.27663855  0.66390867    -0.38360
N1865       N  0.57607150  0.37181017  0.00010309    -0.37810
N1866       N  0.54695812  0.31726982  0.74654068    -0.37810
C1867       C  0.54749765  0.35317053  0.84851696    -0.04470
C1868       C  0.52893616  0.33215504  0.88146621    -0.01590
C1869       C  0.54234528  0.32074845  0.91147154     0.03400
C1870       C  0.57461372  0.32965319  0.90890895    -0.04470
C1871       C  0.59294478  0.34944952  0.87487076    -0.01580
C1872       C  0.57937553  0.36082235  0.84458705     0.03390
C1873       C  0.49578659  0.32231055  0.88555391     0.38040
C1874       C  0.62571034  0.35780307  0.87037659     0.38030
C1875       C  0.59801280  0.37931043  0.80844460     0.36460
C1876       C  0.52280380  0.30097241  0.94634652     0.36460
N1877       N  0.61291032  0.39405458  0.77962609    -0.38360
N1878       N  0.50711622  0.28520815  0.97396412    -0.38360
N1879       N  0.65187651  0.36457951  0.86687320    -0.37810
N1880       N  0.96917968  0.31371419  0.88847024    -0.37810
C1881       C  0.69586765  0.07522353  0.59264697    -0.04470
C1882       C  0.68663976  0.04556069  0.61161845    -0.01590
C1883       C  0.65893196  0.02992447  0.63658629     0.03400
C1884       C  0.64160910  0.04533542  0.64826107    -0.04470
C1885       C  0.65041636  0.07464905  0.62697956    -0.01580
C1886       C  0.67788357  0.08994635  0.60153100     0.03390
C1887       C  0.70566740  0.03056216  0.60559549     0.38040
C1888       C  0.62942759  0.08767976  0.62512682     0.38030
C1889       C  0.68629596  0.12037933  0.58249977     0.36460
C1890       C  0.64692433  0.99649303  0.64397575     0.36460
N1891       N  0.69284045  0.14460028  0.56756737    -0.38360
N1892       N  0.63786020  0.46975415  0.64845360    -0.38360
N1893       N  0.61311330  0.09848988  0.62284292    -0.37810
N1894       N  0.72063176  0.01844178  0.60093206    -0.37810
C1895       C  0.82949036  0.21085128  0.59129180    -0.04470
C1896       C  0.83669954  0.20690881  0.63392552    -0.01590
C1897       C  0.84974621  0.23287155  0.66258794     0.03400
C1898       C  0.85413943  0.26248936  0.64938289    -0.04470
C1899       C  0.84516016  0.26590512  0.60758169    -0.01580
C1900       C  0.83301754  0.24032276  0.57865128     0.03390
C1901       C  0.82822802  0.17566299  0.64935614     0.38040
C1902       C  0.84939068  0.29621250  0.59374246     0.38030
C1903       C  0.82434948  0.24464537  0.53567786     0.36460
C1904       C  0.85824034  0.22901212  0.70579928     0.36460
N1905       N  0.81722518  0.24825793  0.00165817    -0.38360
N1906       N  0.86522182  0.22599453  0.74019683    -0.38360
N1907       N  0.85272679  0.32035897  0.58283106    -0.37810
N1908       N  0.82072461  0.15065376  0.66221465    -0.37810
C1909       C  0.85610771  0.26290728  0.85068246    -0.04470
C1910       C  0.82751044  0.23539179  0.83998902    -0.01590
C1911       C  0.81350225  0.20990007  0.86916835     0.03400
C1912       C  0.82894491  0.21105662  0.90818383    -0.04470
C1913       C  0.85769292  0.23879337  0.91855531    -0.01580
C1914       C  0.87024324  0.26495813  0.89087575     0.03390
C1915       C  0.81235458  0.23337237  0.79916778     0.38040
C1916       C  0.87396579  0.24134128  0.95866782     0.38030
C1917       C  0.89605907  0.29509591  0.90555561     0.36460
C1918       C  0.78321303  0.18263307  0.85881127     0.36460
N1919       N  0.91594907  0.31936885  0.91761865    -0.38360
N1920       N  0.75877401  0.16121531  0.85064177    -0.38360
N1921       N  0.88714798  0.24348477  0.99044864    -0.37810
N1922       N  0.80020760  0.23183901  0.76667368    -0.37810
C1923       C  0.64012545  0.04786999  0.85166993    -0.04470
C1924       C  0.63619145  0.05095142  0.89579363    -0.01590
C1925       C  0.66238600  0.06369133  0.92354548     0.03400
C1926       C  0.69291177  0.07395128  0.90733377    -0.04470
C1927       C  0.69701521  0.07185630  0.86288024    -0.01580
C1928       C  0.67055983  0.05843547  0.83512926     0.03390
C1929       C  0.60490464  0.04040450  0.91281013     0.38040
C1930       C  0.72845935  0.08484675  0.84545281     0.38030
C1931       C  0.67457876  0.05581899  0.78959502     0.36460
C1932       C  0.65758518  0.06539939  0.96908234     0.36460
N1933       N  0.67772852  0.05369296  0.75323862    -0.38360
N1934       N  0.65320650  0.06645737  0.50527118    -0.38360
N1935       N  0.75354186  0.09559881  0.83126639    -0.37810
N1936       N  0.57994757  0.03202287  0.92620894    -0.37810
C1937       C  0.54893276  0.14015201  0.64631586    -0.04470
C1938       C  0.53491033  0.13975773  0.60645469    -0.01590
C1939       C  0.54849892  0.16654102  0.57986970     0.03400
C1940       C  0.57663346  0.19402455  0.59235673    -0.04470
C1941       C  0.59105430  0.19441132  0.63180885    -0.01580
C1942       C  0.57699980  0.16769103  0.65905235     0.03390
C1943       C  0.50673745  0.11135593  0.59200723     0.38040
C1944       C  0.61989379  0.22254590  0.64477988     0.38030
C1945       C  0.59080260  0.16901106  0.70071500     0.36460
C1946       C  0.53392390  0.16523105  0.53869539     0.36460
N1947       N  0.60179183  0.17006982  0.73399214    -0.38360
N1948       N  0.52220222  0.16406231  0.00597957    -0.38360
N1949       N  0.64295968  0.24500004  0.65498488    -0.37810
N1950       N  0.48423939  0.08876388  0.58063620    -0.37810
C1951       C  0.54873299  0.14373750  0.84798170    -0.04470
C1952       C  0.53083351  0.15724259  0.86496037    -0.01590
C1953       C  0.54470712  0.18405480  0.89223001     0.03400
C1954       C  0.57631427  0.19717506  0.90677108    -0.04470
C1955       C  0.59409984  0.18354693  0.89127754    -0.01580
C1956       C  0.58030212  0.15660403  0.86418189     0.03390
C1957       C  0.49696223  0.14258893  0.85888785     0.38040
C1958       C  0.62700134  0.19648651  0.90367975     0.38030
C1959       C  0.59880094  0.14114329  0.85789813     0.36460
C1960       C  0.52527919  0.19738297  0.90576951     0.36460
N1961       N  0.61442561  0.12964942  0.85411682    -0.38360
N1962       N  0.50950073  0.20759493  0.91642790    -0.38360
N1963       N  0.65314686  0.20645328  0.91328637    -0.37810
N1964       N  0.97001840  0.13187454  0.85471743    -0.37810
C1965       C  0.85300304  0.04623508  0.65038911    -0.04470
C1966       C  0.83042249  0.02666247  0.61921907    -0.01590
C1967       C  0.81664467  0.03914049  0.59126202     0.03400
C1968       C  0.82692170  0.07190025  0.59156508    -0.04470
C1969       C  0.85026724  0.09162537  0.62170237    -0.01580
C1970       C  0.86146963  0.07850235  0.65270722     0.03390
C1971       C  0.82227191  0.99382925  0.61397324     0.38040
C1972       C  0.86418429  0.12572684  0.61996492     0.38030
C1973       C  0.88097021  0.09827923  0.68767953     0.36460
C1974       C  0.79347257  0.01831818  0.56002297     0.36460
N1975       N  0.89646344  0.11412668  0.71554923    -0.38360
N1976       N  0.77497623  0.00159871  0.53527799    -0.38360
N1977       N  0.87628614  0.15300283  0.61798056    -0.37810
N1978       N  0.81548015  0.46760148  0.60996763    -0.37810
C1979       C  0.83281579  0.07703516  0.90608314    -0.04470
C1980       C  0.81469054  0.05738109  0.87166629    -0.01590
C1981       C  0.82832585  0.04587470  0.84195030     0.03400
C1982       C  0.85905715  0.05089701  0.84898823    -0.04470
C1983       C  0.87646598  0.06896489  0.88492647    -0.01580
C1984       C  0.86396896  0.08302204  0.91218908     0.03390
C1985       C  0.78156682  0.04765005  0.86765924     0.38040
C1986       C  0.90624765  0.07098723  0.89608228     0.38030
C1987       C  0.88249704  0.10173638  0.94853671     0.36460
C1988       C  0.81070300  0.02911700  0.80398164     0.36460
N1989       N  0.89729514  0.11665062  0.97747802    -0.38360
N1990       N  0.79663922  0.01577358  0.77369334    -0.38360
N1991       N  0.92969772  0.07210190  0.90533858    -0.37810
N1992       N  0.75485634  0.03876098  0.86489641    -0.37810
C1993       C  0.85851862  0.84288650  0.25201569     0.01430
C1994       C  0.84191133  0.85805782  0.25278760     0.01430
C1995       C  0.93606976  0.83853504  0.24791767     0.01430
C1996       C  0.96778994  0.85317826  0.24750226     0.01430
C1997       C  0.96735080  0.56431303  0.24422635     0.01430
C1998       C  0.93560010  0.54882315  0.24424470     0.01430
C1999       C  0.87244026  0.53531541  0.32161022     0.03990
C2000       C  0.90236123  0.55324189  0.30224341    -0.12160
C2001       C  0.91747611  0.53759447  0.28528809     0.01490
C2002       C  0.90392172  0.50522676  0.29426277    -0.10680
C2003       C  0.87088137  0.48795089  0.29396056     0.03980
C2004       C  0.85560481  0.50231806  0.31398144    -0.10100
H2005       H  0.91302815  0.57865431  0.29910590     0.09580
H2006       H  0.91629882  0.49328836  0.28350207     0.07110
H2007       H  0.83070743  0.48831906  0.32100287     0.06960
C2008       C  0.86924963  0.53319996  0.17758488     0.03990
C2009       C  0.90241069  0.54979148  0.18394671    -0.12160
C2010       C  0.91680877  0.53447615  0.20402548     0.01490
C2011       C  0.89952405  0.50140560  0.20361277    -0.10680
C2012       C  0.86744530  0.48803905  0.21330074     0.03980
C2013       C  0.85181155  0.50363479  0.19814478    -0.10100
H2014       H  0.91682477  0.57441015  0.17536983     0.09580
H2015       H  0.91143939  0.48883938  0.21377480     0.07110
H2016       H  0.82669006  0.49335386  0.20314796     0.06960
C2017       C  0.85655077  0.96942134  0.25366582     0.01430
C2018       C  0.84126182  0.93766132  0.25284582     0.01430
C2019       C  0.53351823  0.61470537  0.31793693     0.03990
C2020       C  0.50306404  0.60270419  0.29935095    -0.12160
C2021       C  0.48618294  0.57127348  0.28467916     0.01490
C2022       C  0.49986674  0.55245165  0.29238676    -0.10680
C2023       C  0.53259813  0.56811490  0.28687464     0.03980
C2024       C  0.54961696  0.59933135  0.30209571    -0.10100
H2025       H  0.49478551  0.61856844  0.28979622     0.09580
H2026       H  0.48651544  0.52771736  0.28343085     0.07110
H2027       H  0.57410374  0.61281811  0.29332326     0.06960
C2028       C  0.53368949  0.61123659  0.17349434     0.03990
C2029       C  0.50218075  0.59895271  0.18669298    -0.12160
C2030       C  0.98581523  0.56859790  0.20441006     0.01490
C2031       C  0.49989224  0.54970873  0.20108992    -0.10680
C2032       C  0.53277267  0.56548093  0.20596834     0.03980
C2033       C  0.54985522  0.59548685  0.18693643    -0.10100
H2034       H  0.99127898  0.61357313  0.18545901     0.09580
H2035       H  0.48664232  0.52564589  0.21275335     0.07110
H2036       H  0.57529881  0.60710992  0.18535088     0.06960
C2037       C  0.54440911  0.55979119  0.24763494     0.01430
C2038       C  0.56094182  0.54456742  0.24995333     0.01430
C2039       C  0.61174046  0.53260107  0.32394901     0.03990
C2040       C  0.59713879  0.54961051  0.30971169    -0.12160
C2041       C  0.56684830  0.53307470  0.29153584     0.01490
C2042       C  0.55018108  0.50013961  0.29720926    -0.10680
C2043       C  0.56801000  0.48488727  0.29413059     0.03980
C2044       C  0.59834689  0.50054203  0.31224109    -0.10100
H2045       H  0.61001878  0.57522927  0.30999893     0.09580
H2046       H  0.52601228  0.48736626  0.28597711     0.07110
H2047       H  0.61205229  0.48872225  0.31460918     0.06960
C2048       C  0.87078676  0.79087802  0.32200030     0.03990
C2049       C  0.85474054  0.80716472  0.31116304    -0.12160
C2050       C  0.87156961  0.83702095  0.29214558     0.01490
C2051       C  0.90454440  0.85229959  0.29512633    -0.10680
C2052       C  0.91794785  0.83304987  0.28871554     0.03980
C2053       C  0.90168911  0.80248087  0.30621168    -0.10100
H2054       H  0.82946183  0.79615288  0.31508165     0.09580
H2055       H  0.91781015  0.87666379  0.28468641     0.07110
H2056       H  0.91219493  0.78750176  0.30591525     0.06960
Fe2057     Fe  0.83086037  0.64302074  0.99995933     1.65780
Fe2058     Fe  0.76137919  0.64292010  0.49916169     1.73250
Fe2059     Fe  0.76133248  0.57337788  0.49600284     1.54420
O2060       O  0.79263042  0.57027772  0.45454204    -0.80810
O2061       O  0.73621896  0.61810220  0.05221127    -0.79120
O2062       O  0.83432198  0.61855744  0.44802425    -0.83320
O2063       O  0.83380698  0.61164385  0.04159498    -0.78170
O2064       O  0.73495587  0.57222513  0.44329476    -0.80080
O2065       O  0.79215803  0.67770093  0.04008518    -0.82690
C2066       C  0.81458680  0.58547655  0.05888665     0.98070
C2067       C  0.81889322  0.58948994  0.43767399     1.05510
O2068       O  0.78465232  0.61978732  0.49807575    -1.11670
O2069       O  0.78570718  0.67032477  0.44702939    -0.74110
O2070       O  0.83377073  0.67714648  0.45806939    -0.77590
O2071       O  0.78558638  0.57010619  0.04842644    -0.78280
C2072       C  0.81510385  0.68425809  0.43915081     0.96980
O2073       O  0.83266097  0.67017518  0.05253769    -0.76240
O2074       O  0.72611725  0.61174216  0.45831486    -0.81430
C2075       C  0.72135751  0.58856510  0.05921897     0.99600
C2076       C  0.72005793  0.58701931  0.43743699     1.05520
O2077       O  0.72648214  0.56961095  0.03733238    -0.77080
C2078       C  0.81730608  0.68435193  0.05988764     1.03820
C2079       C  0.86965864  0.79078198  0.17763701     0.03990
C2080       C  0.85299009  0.80550768  0.19299999    -0.12160
C2081       C  0.86989168  0.83596043  0.21099491     0.01490
C2082       C  0.90262699  0.85232592  0.20474735    -0.10680
C2083       C  0.91743433  0.83408449  0.20782889     0.03980
C2084       C  0.90165023  0.80391117  0.18914355    -0.10100
H2085       H  0.82745890  0.79281725  0.19302959     0.09580
H2086       H  0.91576191  0.87671920  0.21526373     0.07110
H2087       H  0.91341724  0.79019928  0.18602948     0.06960
C2088       C  0.61309115  0.53030287  0.17852335     0.03990
C2089       C  0.59930847  0.54772323  0.19512774    -0.12160
C2090       C  0.56836362  0.53182431  0.21092979     0.01490
C2091       C  0.55161865  0.49892267  0.20599032    -0.10680
C2092       C  0.56953186  0.48426107  0.21337672     0.03980
C2093       C  0.60036957  0.49964244  0.19696927    -0.10100
H2094       H  0.61350521  0.57292520  0.20053751     0.09580
H2095       H  0.52710228  0.48640970  0.21550056     0.07110
H2096       H  0.61529032  0.49020873  0.20591364     0.06960
C2097       C  0.53362101  0.86840945  0.32093406     0.03990
C2098       C  0.50361631  0.85009932  0.30175163    -0.12160
C2099       C  0.48688716  0.86483790  0.28762615     0.01490
C2100       C  0.50008026  0.89723640  0.29649174    -0.10680
C2101       C  0.53306884  0.91519251  0.29476840     0.03980
C2102       C  0.54944612  0.90150619  0.31384009    -0.10100
H2103       H  0.49373122  0.82486886  0.29719245     0.09580
H2104       H  0.48690697  0.90861220  0.28673332     0.07110
H2105       H  0.57426667  0.91627631  0.32091057     0.06960
C2106       C  0.53406220  0.87052919  0.17971652     0.03990
C2107       C  0.50174679  0.85226745  0.18930633    -0.12160
C2108       C  0.48631354  0.86709775  0.20754912     0.01490
C2109       C  0.50212705  0.90027187  0.20583042    -0.10680
C2110       C  0.53475263  0.91561957  0.21340776     0.03980
C2111       C  0.55123307  0.90161927  0.19588614    -0.10100
H2112       H  0.48949755  0.82680529  0.18538514     0.09580
H2113       H  0.48950860  0.91196644  0.21659566     0.07110
H2114       H  0.57675494  0.91384703  0.19691529     0.06960
Fe2115     Fe  0.57517011  0.76305911  0.50391011     1.65780
Fe2116     Fe  0.64410724  0.83378419  0.00370444     1.73250
Fe2117     Fe  0.64535732  0.76390144  0.00208797     1.54410
O2118       O  0.61860448  0.73246171  0.04991826    -0.80810
O2119       O  0.67537897  0.83752215  0.45717350    -0.79120
O2120       O  0.57269911  0.73175553  0.04977406    -0.83320
O2121       O  0.57230742  0.73296366  0.45588607    -0.78170
O2122       O  0.67708997  0.79235219  0.04810868    -0.79950
O2123       O  0.61644987  0.83675186  0.45568578    -0.82690
C2124       C  0.58951229  0.72270474  0.44095962     0.98070
C2125       C  0.59053865  0.72162546  0.06302340     1.05510
O2126       O  0.62160343  0.78695188  0.00355058    -1.11670
O2127       O  0.61573712  0.83673821  0.04981404    -0.74110
O2128       O  0.57146354  0.79001689  0.05206551    -0.77590
O2129       O  0.61707795  0.73260900  0.45542589    -0.78280
C2130       C  0.58848774  0.81835882  0.06449745     0.96980
O2131       O  0.57167345  0.79079959  0.45725673    -0.76240
O2132       O  0.67473122  0.83687498  0.05173127    -0.81430
C2133       C  0.68514417  0.82001050  0.44155669     0.99600
C2134       C  0.68597624  0.81958840  0.06350412     1.05520
O2135       O  0.67512873  0.79182691  0.45393384    -0.77080
C2136       C  0.58865922  0.81834862  0.44225248     1.03820
C2137       C  0.79120537  0.87188027  0.32415044     0.03990
C2138       C  0.80618077  0.85453583  0.31255672    -0.12160
C2139       C  0.83625145  0.87055341  0.29380491     0.01490
C2140       C  0.85287385  0.90355825  0.29822349    -0.10680
C2141       C  0.83503170  0.91855763  0.29258301     0.03980
C2142       C  0.80428495  0.90308888  0.30869521    -0.10100
H2143       H  0.79437532  0.82910703  0.31615428     0.09580
H2144       H  0.87723738  0.91610568  0.28807169     0.07110
H2145       H  0.79032627  0.91470493  0.30799745     0.06960
C2146       C  0.79164253  0.87304669  0.18066914     0.03990
C2147       C  0.80535327  0.85511715  0.19455062    -0.12160
C2148       C  0.83565279  0.87080742  0.21261580     0.01490
C2149       C  0.85296676  0.90375574  0.20760532    -0.10680
C2150       C  0.83574359  0.91953148  0.21199192     0.03980
C2151       C  0.80554163  0.90491975  0.19354279    -0.10100
H2152       H  0.79204395  0.82951189  0.19334218     0.09580
H2153       H  0.87727992  0.91594947  0.21824885     0.07110
H2154       H  0.79245805  0.91739765  0.19151212     0.06960
C2155       C  0.54626211  0.93400592  0.25438111     0.01430
C2156       C  0.56279060  0.96585781  0.25426383     0.01430
C2157       C  0.76283738  0.85856583  0.35231889    -0.04470
C2158       C  0.73552654  0.82915029  0.34351567    -0.01590
C2159       C  0.70964529  0.81686836  0.37193790     0.03400
C2160       C  0.71079027  0.83387062  0.40924890    -0.04470
C2161       C  0.73753885  0.86385321  0.41703479    -0.01580
C2162       C  0.76355132  0.87580528  0.38929714     0.03390
C2163       C  0.73360275  0.81169327  0.30492034     0.38040
C2164       C  0.73907666  0.88218607  0.45462988     0.38030
C2165       C  0.79172373  0.90542432  0.40025338     0.36460
C2166       C  0.68125716  0.78737156  0.36175626     0.36460
N2167       N  0.81410434  0.92905002  0.40891786    -0.38360
N2168       N  0.65851065  0.76401696  0.35334405    -0.38360
N2169       N  0.74037896  0.89691943  0.98442621    -0.37810
N2170       N  0.73199704  0.79762245  0.27423616    -0.37810
C2171       C  0.76396449  0.85888036  0.15176665    -0.04470
C2172       C  0.76842415  0.85361139  0.10854403    -0.01590
C2173       C  0.74266211  0.84009210  0.08013290     0.03400
C2174       C  0.71239057  0.83261965  0.09443446    -0.04470
C2175       C  0.70794217  0.83824489  0.13751751    -0.01580
C2176       C  0.73373672  0.85130262  0.16625990     0.03390
C2177       C  0.79986843  0.86326178  0.09288753     0.38040
C2178       C  0.67676333  0.82993154  0.15244417     0.38030
C2179       C  0.72924756  0.85697116  0.21058075     0.36460
C2180       C  0.74752009  0.83433220  0.03591996     0.36460
N2181       N  0.72566313  0.86166409  0.24588891    -0.38360
N2182       N  0.75161125  0.82959992  0.50085184    -0.38360
N2183       N  0.65189752  0.82325801  0.16454987    -0.37810
N2184       N  0.82499049  0.87123942  0.08047165    -0.37810
C2185       C  0.54929816  0.85767863  0.15168306    -0.04470
C2186       C  0.55644978  0.83463983  0.16647986    -0.01590
C2187       C  0.56888818  0.82119811  0.13791870     0.03400
C2188       C  0.57509136  0.83159042  0.09500603    -0.04470
C2189       C  0.56785113  0.85461473  0.08034031    -0.01580
C2190       C  0.55476185  0.86740583  0.10849794     0.03390
C2191       C  0.55113144  0.82495414  0.21098405     0.38040
C2192       C  0.57252318  0.86416329  0.03566975     0.38030
C2193       C  0.54572415  0.88975889  0.09261462     0.36460
C2194       C  0.57500122  0.79653706  0.15244720     0.36460
N2195       N  0.53828670  0.90740762  0.08007154    -0.38360
N2196       N  0.57960405  0.77663289  0.16389429    -0.38360
N2197       N  0.57604928  0.87179912  0.50009316    -0.37810
N2198       N  0.54695616  0.81726150  0.24652982    -0.37810
C2199       C  0.54748577  0.85315204  0.34850260    -0.04470
C2200       C  0.52892161  0.83213212  0.38144675    -0.01590
C2201       C  0.54232978  0.82072534  0.41145287     0.03400
C2202       C  0.57459849  0.82963327  0.40889458    -0.04470
C2203       C  0.59293279  0.84943404  0.37486272    -0.01580
C2204       C  0.57936508  0.86080737  0.34457786     0.03390
C2205       C  0.49577070  0.82228316  0.38552843     0.38040
C2206       C  0.62570017  0.85779197  0.37037793     0.38030
C2207       C  0.59800543  0.87929972  0.30844003     0.36460
C2208       C  0.52278868  0.80094765  0.44632686     0.36460
N2209       N  0.61290524  0.89404727  0.27962510    -0.38360
N2210       N  0.50710206  0.78518273  0.47394463    -0.38360
N2211       N  0.65186778  0.86457194  0.36688189    -0.37810
N2212       N  0.96916269  0.81368296  0.38843953    -0.37810
C2213       C  0.69587446  0.57522858  0.09263127    -0.04470
C2214       C  0.68665048  0.54556754  0.11160516    -0.01590
C2215       C  0.65894382  0.52993006  0.13657441     0.03400
C2216       C  0.64161706  0.54533776  0.14824425    -0.04470
C2217       C  0.65041999  0.57464902  0.12695808    -0.01580
C2218       C  0.67788713  0.58994803  0.10151015     0.03390
C2219       C  0.70568131  0.53057242  0.10558295     0.38040
C2220       C  0.62942733  0.58767504  0.12510066     0.38030
C2221       C  0.68629577  0.62037793  0.08247179     0.36460
C2222       C  0.64694257  0.49650070  0.14397240     0.36460
N2223       N  0.69283746  0.64459625  0.06753293    -0.38360
N2224       N  0.63784606  0.96974798  0.14846546    -0.38360
N2225       N  0.61310988  0.59848139  0.12281377    -0.37810
N2226       N  0.72064757  0.51845406  0.10092040    -0.37810
C2227       C  0.82950662  0.71085705  0.09128419    -0.04470
C2228       C  0.83673226  0.70692141  0.13391257    -0.01590
C2229       C  0.84976975  0.73288365  0.16257592     0.03400
C2230       C  0.85414251  0.76249478  0.14937627    -0.04470
C2231       C  0.84515231  0.76590456  0.10757924    -0.01580
C2232       C  0.83301767  0.74032306  0.07864771     0.03390
C2233       C  0.82829235  0.67568234  0.14933672     0.38040
C2234       C  0.84936341  0.79620549  0.09374507     0.38030
C2235       C  0.82434607  0.74464273  0.03567486     0.36460
C2236       C  0.85827449  0.72903017  0.20578390     0.36460
N2237       N  0.81722681  0.74825346  0.50164959    -0.38360
N2238       N  0.86526378  0.72601765  0.24017911    -0.38360
N2239       N  0.85268373  0.82034667  0.08283780    -0.37810
N2240       N  0.82081578  0.65067831  0.16219079    -0.37810
C2241       C  0.85611792  0.76291108  0.35067745    -0.04470
C2242       C  0.82752559  0.73539130  0.33998077    -0.01590
C2243       C  0.81352281  0.70989693  0.36915674     0.03400
C2244       C  0.82896567  0.71105585  0.40817331    -0.04470
C2245       C  0.85771014  0.73879598  0.41854660    -0.01580
C2246       C  0.87025544  0.76496245  0.39086952     0.03390
C2247       C  0.81236925  0.73337027  0.29915938     0.38040
C2248       C  0.87398371  0.74134547  0.45865888     0.38030
C2249       C  0.89606819  0.79510177  0.40555054     0.36460
C2250       C  0.78323873  0.68262441  0.35879480     0.36460
N2251       N  0.91595628  0.81937564  0.41761403    -0.38360
N2252       N  0.75880389  0.66120180  0.35062125    -0.38360
N2253       N  0.88716648  0.74349014  0.49043956    -0.37810
N2254       N  0.80022201  0.73183587  0.26666514    -0.37810
C2255       C  0.64014895  0.54787989  0.35164478    -0.04470
C2256       C  0.63621614  0.55096486  0.39576776    -0.01590
C2257       C  0.66241029  0.56370066  0.42352026     0.03400
C2258       C  0.69293542  0.57395372  0.40731054    -0.04470
C2259       C  0.69703773  0.57185298  0.36285769    -0.01580
C2260       C  0.67058231  0.55843650  0.33510590     0.03390
C2261       C  0.60493043  0.54042487  0.41278342     0.38040
C2262       C  0.72848098  0.58483233  0.34543134     0.38030
C2263       C  0.67460022  0.55581566  0.28957245     0.36460
C2264       C  0.65760879  0.56540965  0.46905660     0.36460
N2265       N  0.67774904  0.55368630  0.25321660    -0.38360
N2266       N  0.65322254  0.56647932  0.00524680    -0.38360
N2267       N  0.75356280  0.59557514  0.33124541    -0.37810
N2268       N  0.57997428  0.53204866  0.42618169    -0.37810
C2269       C  0.54893028  0.64014701  0.14629340    -0.04470
C2270       C  0.53491017  0.63975411  0.10643072    -0.01590
C2271       C  0.54850133  0.66653796  0.07984639     0.03400
C2272       C  0.57663614  0.69402008  0.09233516    -0.04470
C2273       C  0.59105549  0.69440547  0.13178743    -0.01580
C2274       C  0.57699809  0.66768534  0.15903115     0.03390
C2275       C  0.50673781  0.61135316  0.09198054     0.38040
C2276       C  0.61989704  0.72253819  0.14475730     0.38030
C2277       C  0.59079889  0.66900517  0.20069523     0.36460
C2278       C  0.53392907  0.66523080  0.03867081     0.36460
N2279       N  0.60178671  0.67006401  0.23397347    -0.38360
N2280       N  0.52218271  0.66406343  0.50596491    -0.38360
N2281       N  0.64296475  0.74499068  0.15496134    -0.37810
N2282       N  0.48424030  0.58876166  0.08060685    -0.37810
C2283       C  0.54872719  0.64373382  0.34796626    -0.04470
C2284       C  0.53083638  0.65725601  0.36492032    -0.01590
C2285       C  0.54471453  0.68407033  0.39218631     0.03400
C2286       C  0.57631488  0.69717436  0.40674921    -0.04470
C2287       C  0.59409106  0.68352949  0.39127830    -0.01580
C2288       C  0.58028720  0.65658208  0.36419196     0.03390
C2289       C  0.49696814  0.64261756  0.35883006     0.38040
C2290       C  0.62698694  0.69645320  0.40369823     0.38030
C2291       C  0.59876322  0.64109198  0.35795297     0.36460
C2292       C  0.52530036  0.69742203  0.40569301     0.36460
N2293       N  0.61436716  0.62957244  0.35420467    -0.38360
N2294       N  0.50953214  0.70765175  0.41632719    -0.38360
N2295       N  0.65312870  0.70640904  0.41331666    -0.37810
N2296       N  0.97002656  0.63191455  0.35464799    -0.37810
C2297       C  0.85297542  0.54623289  0.15045528    -0.04470
C2298       C  0.83034297  0.52664579  0.11934559    -0.01590
C2299       C  0.81657064  0.53912685  0.09138277     0.03400
C2300       C  0.82690254  0.57189957  0.09161168    -0.04470
C2301       C  0.85028456  0.59163318  0.12170453    -0.01580
C2302       C  0.86148332  0.57851361  0.15272067     0.03390
C2303       C  0.82212619  0.49378879  0.11416567     0.38040
C2304       C  0.86423750  0.62573755  0.11991581     0.38030
C2305       C  0.88102139  0.59830996  0.18765404     0.36460
C2306       C  0.79333940  0.51828494  0.06021751     0.36460
N2307       N  0.89654473  0.61417368  0.21549202    -0.38360
N2308       N  0.77479402  0.50154832  0.03553491    -0.38360
N2309       N  0.87636360  0.65301372  0.11789234    -0.37810
N2310       N  0.81567168  0.96765633  0.10973363    -0.37810
C2311       C  0.83283852  0.57703184  0.40610283    -0.04470
C2312       C  0.81471091  0.55736891  0.37169436    -0.01590
C2313       C  0.82834574  0.54585986  0.34198255     0.03400
C2314       C  0.85908152  0.55089296  0.34901416    -0.04470
C2315       C  0.87649552  0.56897408  0.38494068    -0.01580
C2316       C  0.86399604  0.58302952  0.41220209     0.03390
C2317       C  0.78158608  0.54763432  0.36768972     0.38040
C2318       C  0.90628724  0.57101458  0.39608422     0.38030
C2319       C  0.88252732  0.60175475  0.44854076     0.36460
C2320       C  0.81071742  0.52908778  0.30402439     0.36460
N2321       N  0.89732811  0.61667757  0.47747495    -0.38360
N2322       N  0.79664880  0.51573230  0.27374517    -0.38360
N2323       N  0.92974620  0.57214484  0.40533015    -0.37810
N2324       N  0.75487526  0.53874400  0.36492852    -0.37810
C2325       C  0.85851877  0.84288568  0.75200998     0.01430
C2326       C  0.84191204  0.85805750  0.75278070     0.01430
C2327       C  0.93606993  0.83853450  0.74791845     0.01430
C2328       C  0.96779027  0.85318151  0.74750381     0.01430
C2329       C  0.96734959  0.56430941  0.74423015     0.01430
C2330       C  0.93559899  0.54882192  0.74424671     0.01430
C2331       C  0.87243701  0.53531257  0.82160868     0.03990
C2332       C  0.90235873  0.55323926  0.80224404    -0.12160
C2333       C  0.91747372  0.53759201  0.78528876     0.01490
C2334       C  0.90391834  0.50522387  0.79426092    -0.10680
C2335       C  0.87087800  0.48794863  0.79395566     0.03980
C2336       C  0.85560100  0.50231556  0.81397639    -0.10100
H2337       H  0.91302643  0.57865189  0.79910859     0.09580
H2338       H  0.91629551  0.49328553  0.78350024     0.07110
H2339       H  0.83070332  0.48831662  0.82099592     0.06960
C2340       C  0.86925043  0.53320122  0.67758271     0.03990
C2341       C  0.90241120  0.54979298  0.68394772    -0.12160
C2342       C  0.91680869  0.53447684  0.70402611     0.01490
C2343       C  0.89952429  0.50140633  0.70361030    -0.10680
C2344       C  0.86744512  0.48803913  0.71329581     0.03980
C2345       C  0.85181180  0.50363529  0.69814029    -0.10100
H2346       H  0.91682548  0.57441206  0.67537302     0.09580
H2347       H  0.91143933  0.48883980  0.71377225     0.07110
H2348       H  0.82669006  0.49335389  0.70314171     0.06960
C2349       C  0.85654746  0.96942006  0.75366279     0.01430
C2350       C  0.84126118  0.93766017  0.75284022     0.01430
C2351       C  0.53351538  0.61470372  0.81794157     0.03990
C2352       C  0.50306030  0.60270042  0.79935722    -0.12160
C2353       C  0.48618120  0.57126992  0.78468379     0.01490
C2354       C  0.49986729  0.55245005  0.79239037    -0.10680
C2355       C  0.53259868  0.56811543  0.78687733     0.03980
C2356       C  0.54961586  0.59933213  0.80209797    -0.10100
H2357       H  0.49477991  0.61856333  0.78980344     0.09580
H2358       H  0.48651733  0.52771566  0.78343459     0.07110
H2359       H  0.57410255  0.61282050  0.79332585     0.06960
C2360       C  0.53368629  0.61123381  0.67349590     0.03990
C2361       C  0.50217778  0.59894886  0.68669576    -0.12160
C2362       C  0.98581413  0.56859450  0.70441409     0.01490
C2363       C  0.49989236  0.54970650  0.70109386    -0.10680
C2364       C  0.53277287  0.56548019  0.70597121     0.03980
C2365       C  0.54985379  0.59548583  0.68693807    -0.10100
H2366       H  0.99127486  0.61356824  0.68546195     0.09580
H2367       H  0.48664356  0.52564373  0.71275784     0.07110
H2368       H  0.57529740  0.60711009  0.68535171     0.06960
C2369       C  0.54441044  0.55979218  0.74763799     0.01430
C2370       C  0.56094295  0.54456822  0.74995691     0.01430
C2371       C  0.61174179  0.53260236  0.82395237     0.03990
C2372       C  0.59714020  0.54961182  0.80971490    -0.12160
C2373       C  0.56684953  0.53307599  0.79153974     0.01490
C2374       C  0.55018209  0.50014097  0.79721409    -0.10680
C2375       C  0.56801072  0.48488827  0.79413573     0.03980
C2376       C  0.59834784  0.50054311  0.81224547    -0.10100
H2377       H  0.61002040  0.57523059  0.81000145     0.09580
H2378       H  0.52601319  0.48736765  0.78598238     0.07110
H2379       H  0.61205306  0.48872316  0.81461381     0.06960
C2380       C  0.87078537  0.79087711  0.82199795     0.03990
C2381       C  0.85473895  0.80716318  0.81115797    -0.12160
C2382       C  0.87156842  0.83701955  0.79214081     0.01490
C2383       C  0.90454311  0.85229871  0.79512405    -0.10680
C2384       C  0.91794729  0.83304942  0.78871544     0.03980
C2385       C  0.90168833  0.80248045  0.80621148    -0.10100
H2386       H  0.82946008  0.79615104  0.81507487     0.09580
H2387       H  0.91780891  0.87666289  0.78468407     0.07110
H2388       H  0.91219466  0.78750178  0.80591691     0.06960
Fe2389     Fe  0.83085848  0.64301974  0.49995811     1.65780
Fe2390     Fe  0.76138128  0.64292156  0.99916333     1.73250
Fe2391     Fe  0.76133400  0.57337922  0.99600446     1.54420
O2392       O  0.79263145  0.57027832  0.95454393    -0.80810
O2393       O  0.73621614  0.61810004  0.55220903    -0.79120
O2394       O  0.83432351  0.61855763  0.94802573    -0.83320
O2395       O  0.83380550  0.61164299  0.54159287    -0.78170
O2396       O  0.73495784  0.57222682  0.94329620    -0.80080
O2397       O  0.79215562  0.67769911  0.54008448    -0.82690
C2398       C  0.81458561  0.58547576  0.55888469     0.98070
C2399       C  0.81889419  0.58949009  0.93767549     1.05510
O2400       O  0.78465423  0.61978862  0.99807728    -1.11670
O2401       O  0.78570868  0.67032542  0.94703049    -0.74110
O2402       O  0.83377243  0.67714728  0.95806969    -0.77590
O2403       O  0.78558515  0.57010509  0.54842473    -0.78280
C2404       C  0.81510521  0.68425861  0.93915123     0.96980
O2405       O  0.83265858  0.67017330  0.55253682    -0.76240
O2406       O  0.72611882  0.61174339  0.95831744    -0.81430
C2407       C  0.72135526  0.58856297  0.55921733     0.99600
C2408       C  0.72005966  0.58702079  0.93743907     1.05520
O2409       O  0.72648047  0.56960902  0.53733118    -0.77080
C2410       C  0.81730367  0.68434995  0.55988694     1.03820
C2411       C  0.86965961  0.79078062  0.67763504     0.03990
C2412       C  0.85299122  0.80550720  0.69299515    -0.12160
C2413       C  0.86989273  0.83595987  0.71099005     0.01490
C2414       C  0.90262823  0.85232469  0.70474464    -0.10680
C2415       C  0.91743474  0.83408264  0.70782898     0.03980
C2416       C  0.90165060  0.80390894  0.68914454    -0.10100
H2417       H  0.82746001  0.79281743  0.69302276     0.09580
H2418       H  0.91576317  0.87671801  0.71526089     0.07110
H2419       H  0.91341712  0.79019644  0.68603280     0.06960
C2420       C  0.61309122  0.53030199  0.67852677     0.03990
C2421       C  0.59930906  0.54772281  0.69513123    -0.12160
C2422       C  0.56836436  0.53182438  0.71093379     0.01490
C2423       C  0.55161906  0.49892268  0.70599516    -0.10680
C2424       C  0.56953207  0.48426091  0.71338193     0.03980
C2425       C  0.60036962  0.49964175  0.69697359    -0.10100
H2426       H  0.61350607  0.57292484  0.70054026     0.09580
H2427       H  0.52710277  0.48641007  0.71550580     0.07110
H2428       H  0.61529020  0.49020777  0.70591756     0.06960
C2429       C  0.53362171  0.86841379  0.82093557     0.03990
C2430       C  0.50361616  0.85010338  0.80175519    -0.12160
C2431       C  0.48688756  0.86484218  0.78762774     0.01490
C2432       C  0.50008181  0.89724115  0.79649070    -0.10680
C2433       C  0.53307040  0.91519636  0.79476586     0.03980
C2434       C  0.54944743  0.90151017  0.81383858    -0.10100
H2435       H  0.49373028  0.82487261  0.79719834     0.09580
H2436       H  0.48690886  0.90861718  0.78673173     0.07110
H2437       H  0.57426829  0.91628002  0.82090736     0.06960
C2438       C  0.53406018  0.87052991  0.67971558     0.03990
C2439       C  0.50174513  0.85226904  0.68930707    -0.12160
C2440       C  0.48631318  0.86710038  0.70755017     0.01490
C2441       C  0.50212710  0.90027445  0.70582979    -0.10680
C2442       C  0.53475289  0.91562189  0.71340515     0.03980
C2443       C  0.55123220  0.90162047  0.69588327    -0.10100
H2444       H  0.48949528  0.82680676  0.68538708     0.09580
H2445       H  0.48950930  0.91196973  0.71659486     0.07110
H2446       H  0.57675408  0.91384775  0.69691082     0.06960
Fe2447     Fe  0.57517569  0.76306375  0.00390865     1.65780
Fe2448     Fe  0.64410230  0.83378109  0.50370861     1.73250
Fe2449     Fe  0.64535290  0.76389888  0.50209095     1.54410
O2450       O  0.61859131  0.73244980  0.54990769    -0.80810
O2451       O  0.67538630  0.83752304  0.95717506    -0.79120
O2452       O  0.57269319  0.73175879  0.54978779    -0.83320
O2453       O  0.57231334  0.73297744  0.95587156    -0.78170
O2454       O  0.67707586  0.79234150  0.54812574    -0.79950
O2455       O  0.61645902  0.83675524  0.95567579    -0.82690
C2456       C  0.58951221  0.72270674  0.94095929     0.98070
C2457       C  0.59052958  0.72162164  0.56302521     1.05510
O2458       O  0.62159843  0.78694851  0.50355350    -1.11670
O2459       O  0.61573573  0.83673385  0.54982453    -0.74110
O2460       O  0.57145457  0.79001829  0.55205457    -0.77590
O2461       O  0.61707294  0.73260057  0.95543819    -0.78280
C2462       C  0.58848216  0.81835692  0.56449688     0.96980
O2463       O  0.57167638  0.79081042  0.95726726    -0.76240
O2464       O  0.67473045  0.83687226  0.55172967    -0.81430
C2465       C  0.68514449  0.82000838  0.94154836     0.99600
C2466       C  0.68596805  0.81958132  0.56351266     1.05520
O2467       O  0.67512324  0.79182187  0.95391740    -0.77080
C2468       C  0.58866438  0.81835582  0.94225341     1.03820
C2469       C  0.79120288  0.87187727  0.82413897     0.03990
C2470       C  0.80617889  0.85453333  0.81254657    -0.12160
C2471       C  0.83625046  0.87055176  0.79379758     0.01490
C2472       C  0.85287239  0.90355650  0.79821743    -0.10680
C2473       C  0.83503008  0.91855560  0.79257618     0.03980
C2474       C  0.80428266  0.90308609  0.80868527    -0.10100
H2475       H  0.79437321  0.82910439  0.81614281     0.09580
H2476       H  0.87723624  0.91610440  0.78806699     0.07110
H2477       H  0.79032389  0.91470205  0.80798709     0.06960
C2478       C  0.79164298  0.87304582  0.68066322     0.03990
C2479       C  0.80535454  0.85511690  0.69454394    -0.12160
C2480       C  0.83565408  0.87080742  0.71260879     0.01490
C2481       C  0.85296763  0.90375591  0.70759905    -0.10680
C2482       C  0.83574408  0.91953136  0.71198541     0.03980
C2483       C  0.80554206  0.90491911  0.69353617    -0.10100
H2484       H  0.79204536  0.82951161  0.69333621     0.09580
H2485       H  0.87728060  0.91594981  0.71824341     0.07110
H2486       H  0.79245806  0.91739661  0.69150600     0.06960
C2487       C  0.54626373  0.93400886  0.75437779     0.01430
C2488       C  0.56279452  0.96586073  0.75425974     0.01430
C2489       C  0.76283538  0.85856309  0.85230740    -0.04470
C2490       C  0.73552391  0.82914843  0.84350347    -0.01590
C2491       C  0.70964321  0.81686658  0.87192659     0.03400
C2492       C  0.71078942  0.83386854  0.90923870    -0.04470
C2493       C  0.73753820  0.86385150  0.91702342    -0.01580
C2494       C  0.76355048  0.87580254  0.88928599     0.03390
C2495       C  0.73359908  0.81169256  0.80490645     0.38040
C2496       C  0.73907658  0.88218660  0.95461629     0.38030
C2497       C  0.79172402  0.90542053  0.90024290     0.36460
C2498       C  0.68125424  0.78737083  0.86174397     0.36460
N2499       N  0.81410560  0.92904527  0.90890784    -0.38360
N2500       N  0.65850707  0.76401717  0.85333065    -0.38360
N2501       N  0.74037844  0.89691674  0.48444198    -0.37810
N2502       N  0.73199259  0.79762286  0.77422074    -0.37810
C2503       C  0.76396233  0.85887738  0.65176506    -0.04470
C2504       C  0.76841716  0.85359956  0.60854419    -0.01590
C2505       C  0.74265281  0.84007883  0.58013710     0.03400
C2506       C  0.71238363  0.83261278  0.59444082    -0.04470
C2507       C  0.70793978  0.83824638  0.63752202    -0.01580
C2508       C  0.73373674  0.85130599  0.66626057     0.03390
C2509       C  0.79985899  0.86324254  0.59288462     0.38040
C2510       C  0.67676336  0.82994046  0.65245066     0.38030
C2511       C  0.72925223  0.85698240  0.71057994     0.36460
C2512       C  0.74750608  0.83431180  0.53592523     0.36460
N2513       N  0.72567176  0.86168151  0.74588700    -0.38360
N2514       N  0.75162953  0.82962578  0.00084597    -0.38360
N2515       N  0.65189958  0.82327308  0.66455818    -0.37810
N2516       N  0.82497903  0.87121408  0.58046587    -0.37810
C2517       C  0.54929427  0.85767792  0.65168164    -0.04470
C2518       C  0.55644738  0.83464039  0.66647943    -0.01590
C2519       C  0.56888513  0.82119811  0.63791833     0.03400
C2520       C  0.57508532  0.83158811  0.59500462    -0.04470
C2521       C  0.56784218  0.85460988  0.58033734    -0.01580
C2522       C  0.55475418  0.86740205  0.60849517     0.03390
C2523       C  0.55113070  0.82495622  0.71098428     0.38040
C2524       C  0.57251068  0.86415514  0.53566551     0.38030
C2525       C  0.54571414  0.88975317  0.59261106     0.36460
C2526       C  0.57500019  0.79653857  0.65244759     0.36460
N2527       N  0.53827482  0.90740036  0.58006750    -0.38360
N2528       N  0.57960476  0.77663564  0.66389516    -0.38360
N2529       N  0.57606479  0.87180995  0.00009844    -0.37810
N2530       N  0.54695648  0.81726461  0.74653047    -0.37810
C2531       C  0.54748727  0.85315713  0.84850431    -0.04470
C2532       C  0.52892461  0.83213923  0.88145097    -0.01590
C2533       C  0.54233380  0.82073342  0.91145707     0.03400
C2534       C  0.57460233  0.82964031  0.90889637    -0.04470
C2535       C  0.59293498  0.84943911  0.87486172    -0.01580
C2536       C  0.57936611  0.86081143  0.84457709     0.03390
C2537       C  0.49577412  0.82229142  0.88553521     0.38040
C2538       C  0.62570190  0.85779614  0.87037348     0.38030
C2539       C  0.59800479  0.87930164  0.80843683     0.36460
C2540       C  0.52279360  0.80095736  0.94633281     0.36460
N2541       N  0.61290326  0.89404750  0.77961999    -0.38360
N2542       N  0.50710756  0.78519354  0.97395177    -0.38360
N2543       N  0.65186917  0.86457553  0.86687467    -0.37810
N2544       N  0.96916644  0.81369218  0.88844862    -0.37810
C2545       C  0.69587238  0.57522633  0.59263015    -0.04470
C2546       C  0.68664887  0.54556556  0.61160471    -0.01590
C2547       C  0.65894307  0.52992860  0.63657594     0.03400
C2548       C  0.64161641  0.54533633  0.64824620    -0.04470
C2549       C  0.65041860  0.57464707  0.62695897    -0.01580
C2550       C  0.67788509  0.58994574  0.60150968     0.03390
C2551       C  0.70567941  0.53057025  0.60558143     0.38040
C2552       C  0.62942576  0.58767290  0.62510218     0.38030
C2553       C  0.68629316  0.62037537  0.58247089     0.36460
C2554       C  0.64694255  0.49649963  0.64397616     0.36460
N2555       N  0.69283442  0.64459350  0.56753178    -0.38360
N2556       N  0.63783567  0.96974568  0.64844523    -0.38360
N2557       N  0.61310816  0.59847910  0.62281584    -0.37810
N2558       N  0.72064544  0.51845172  0.60091805    -0.37810
C2559       C  0.82950468  0.71085510  0.59128328    -0.04470
C2560       C  0.83673024  0.70691935  0.63391165    -0.01590
C2561       C  0.84976898  0.73288186  0.66257452     0.03400
C2562       C  0.85414361  0.76249354  0.64937411    -0.04470
C2563       C  0.84515401  0.76590363  0.60757680    -0.01580
C2564       C  0.83301744  0.74032161  0.57864609     0.03390
C2565       C  0.82828910  0.67568005  0.64933617     0.38040
C2566       C  0.84936784  0.79620534  0.59374139     0.38030
C2567       C  0.82434548  0.74464122  0.53567343     0.36460
C2568       C  0.85827298  0.72902808  0.70578279     0.36460
N2569       N  0.81722777  0.74825502  0.00165082    -0.38360
N2570       N  0.86526167  0.72601532  0.74017824    -0.38360
N2571       N  0.85269048  0.82034718  0.58283296    -0.37810
N2572       N  0.82081167  0.65067585  0.66219041    -0.37810
C2573       C  0.85611662  0.76291076  0.85067625    -0.04470
C2574       C  0.82752451  0.73539048  0.83998038    -0.01590
C2575       C  0.81352257  0.70989642  0.86915695     0.03400
C2576       C  0.82896626  0.71105599  0.90817307    -0.04470
C2577       C  0.85771032  0.73879670  0.91854571    -0.01580
C2578       C  0.87025454  0.76496296  0.89086830     0.03390
C2579       C  0.81236753  0.73336852  0.79915921     0.38040
C2580       C  0.87398445  0.74134699  0.95865773     0.38030
C2581       C  0.89606647  0.79510290  0.90554898     0.36460
C2582       C  0.78323834  0.68262368  0.85879626     0.36460
N2583       N  0.91595378  0.81937733  0.91761209    -0.38360
N2584       N  0.75880330  0.66120100  0.85062376    -0.38360
N2585       N  0.88716767  0.74349231  0.99043821    -0.37810
N2586       N  0.80021973  0.73183331  0.76666518    -0.37810
C2587       C  0.64015039  0.54788131  0.85164773    -0.04470
C2588       C  0.63621778  0.55096640  0.89577071    -0.01590
C2589       C  0.66241204  0.56370225  0.92352293     0.03400
C2590       C  0.69293707  0.57395524  0.90731290    -0.04470
C2591       C  0.69703918  0.57185436  0.86286001    -0.01580
C2592       C  0.67058363  0.55843784  0.83510850     0.03390
C2593       C  0.60493215  0.54042648  0.91278666     0.38040
C2594       C  0.72848232  0.58483349  0.84543336     0.38030
C2595       C  0.67460127  0.55581685  0.78957500     0.36460
C2596       C  0.65761072  0.56541124  0.96905931     0.36460
N2597       N  0.67774989  0.55368737  0.75321912    -0.38360
N2598       N  0.65322059  0.56647780  0.50524407    -0.38360
N2599       N  0.75356404  0.59557609  0.83124715    -0.37810
N2600       N  0.57997608  0.53205032  0.92618517    -0.37810
C2601       C  0.54892521  0.64014408  0.64629489    -0.04470
C2602       C  0.53490383  0.63975050  0.60643289    -0.01590
C2603       C  0.54849318  0.66653464  0.57984906     0.03400
C2604       C  0.57662761  0.69401702  0.59233731    -0.04470
C2605       C  0.59104781  0.69440349  0.63178905    -0.01580
C2606       C  0.57699209  0.66768337  0.65903262     0.03390
C2607       C  0.50673219  0.61134873  0.59198303     0.38040
C2608       C  0.61988838  0.72253748  0.64475836     0.38030
C2609       C  0.59079356  0.66900414  0.70069648     0.36460
C2610       C  0.53391955  0.66522800  0.53867479     0.36460
N2611       N  0.60178190  0.67006373  0.73397458    -0.38360
N2612       N  0.52219322  0.66406577  0.00595995    -0.38360
N2613       N  0.64295514  0.74499121  0.65496188    -0.37810
N2614       N  0.48423528  0.58875649  0.58060967    -0.37810
C2615       C  0.54872404  0.64373233  0.84797081    -0.04470
C2616       C  0.53083318  0.65725418  0.86492572    -0.01590
C2617       C  0.54471126  0.68406803  0.89219289     0.03400
C2618       C  0.57631311  0.69717469  0.90675097    -0.04470
C2619       C  0.59408947  0.68353067  0.89127783    -0.01580
C2620       C  0.58028429  0.65658106  0.86419565     0.03390
C2621       C  0.49696503  0.64261584  0.85883497     0.38040
C2622       C  0.62698721  0.69645805  0.90369038     0.38030
C2623       C  0.59875868  0.64108870  0.85796146     0.36460
C2624       C  0.52529503  0.69741549  0.90570739     0.36460
N2625       N  0.61436090  0.62956697  0.85421660    -0.38360
N2626       N  0.50952526  0.70764193  0.91634766    -0.38360
N2627       N  0.65313037  0.70641663  0.91330329    -0.37810
N2628       N  0.97002350  0.63191312  0.85465280    -0.37810
C2629       C  0.85297664  0.54623401  0.65045203    -0.04470
C2630       C  0.83034499  0.52664674  0.61934154    -0.01590
C2631       C  0.81657149  0.53912703  0.59137959     0.03400
C2632       C  0.82690199  0.57189937  0.59160942    -0.04470
C2633       C  0.85028378  0.59163339  0.62170228    -0.01580
C2634       C  0.86148337  0.57851438  0.65271804     0.03390
C2635       C  0.82213027  0.49379045  0.61415977     0.38040
C2636       C  0.86423558  0.62573765  0.61991396     0.38030
C2637       C  0.88102096  0.59831093  0.68765158     0.36460
C2638       C  0.79334046  0.51828483  0.56021431     0.36460
N2639       N  0.89654392  0.61417489  0.71548964    -0.38360
N2640       N  0.77479521  0.50154798  0.53553174    -0.38360
N2641       N  0.87636084  0.65301378  0.61789077    -0.37810
N2642       N  0.81567661  0.96765957  0.60972996    -0.37810
C2643       C  0.83283838  0.57703116  0.90610370    -0.04470
C2644       C  0.81470968  0.55736795  0.87169600    -0.01590
C2645       C  0.82834327  0.54585788  0.84198368     0.03400
C2646       C  0.85907878  0.55088994  0.84901423    -0.04470
C2647       C  0.87649365  0.56897099  0.88494043    -0.01580
C2648       C  0.86399559  0.58302775  0.91220194     0.03390
C2649       C  0.78158495  0.54763410  0.86769268     0.38040
C2650       C  0.90628490  0.57101023  0.89608346     0.38030
C2651       C  0.88252802  0.60175336  0.94853966     0.36460
C2652       C  0.81071402  0.52908612  0.80402592     0.36460
N2653       N  0.89732976  0.61667651  0.97747304    -0.38360
N2654       N  0.79664463  0.51573092  0.77374702    -0.38360
N2655       N  0.92974351  0.57213954  0.90532888    -0.37810
N2656       N  0.75487418  0.53874428  0.86493257    -0.37810
loop_ 
_geom_bond_atom_site_label_1 
_geom_bond_atom_site_label_2 
_geom_bond_distance 
_geom_bond_site_symmetry_2 
_ccdc_geom_bond_type 
C1            C2   1.345       .  D
C1           C58   1.496       .  S
C1           C89   1.502       .  S
C2          C147   1.503       .  S
C2          C156   1.497       .  S
C3            C4   1.347       .  D
C3           C60   1.500       .  S
C3           C91   1.497       .  S
C4         C1435   1.492       .  S
C4         C1444   1.494       .  S
C5            C6   1.347       .  D
C5           C38   1.491       .  S
C5         C1357   1.496       .  S
C6            C9   1.500       .  S
C6           C18   1.504       .  S
C7            C8   1.415       .  A
C7           C12   1.415       .  A
C7          C322   1.495       .  S
C8            C9   1.406       .  A
C8           H13   1.084       .  S
C9           C10   1.403       .  A
C10          C11   1.402   1_545  A
C10          H14   1.083   1_545  S
C11         C689   1.500       .  S
C11          C12   1.402   1_565  A
C12          H15   1.082   1_545  S
C16          C17   1.420       .  A
C16          C21   1.413       .  A
C16         C305   1.502       .  S
C17          C18   1.404       .  A
C17          H22   1.081       .  S
C18          C19   1.399       .  A
C19          C20   1.401   1_545  A
C19          H23   1.083   1_545  S
C20         C689   1.491       .  S
C20          C21   1.403   1_565  A
C21          H24   1.083   1_545  S
C25          C26   1.343       .  D
C25         C675   1.500       .  S
C25         C684   1.491       .  S
C26         C149   1.490       .  S
C26         C158   1.497       .  S
C27          C28   1.423       .  A
C27          C32   1.421       .  A
C27         C291   1.543       .  S
C28          C29   1.406   1_455  A
C28          H33   1.079   1_455  S
C29        C1333   1.496       .  S
C29          C30   1.401       .  A
C30          C31   1.400   1_655  A
C30          H34   1.083       .  S
C31          C45   1.496       .  S
C31          C32   1.404       .  A
C32          H35   1.077       .  S
C36          C37   1.410       .  A
C36          C41   1.413       .  A
C36         C277   1.491       .  S
C37        C1366   1.400   1_455  A
C37        H1370   1.084   1_455  S
C38        C1365   1.400       .  A
C38        C1367   1.403       .  A
C39          C40   1.403   1_655  A
C39        C1366   1.403       .  A
C39          H43   1.083       .  S
C40          C45   1.499       .  S
C40          C41   1.406       .  A
C41          H44   1.082       .  S
H42        C1365   1.084       .  S
C45          C46   1.346       .  D
C46          C49   1.498       .  S
C46          C98   1.493       .  S
C47          C48   1.410       .  A
C47          C52   1.409       .  A
C47         C263   1.481       .  S
C48          C49   1.404       .  A
C48          H53   1.083       .  S
C49          C50   1.404       .  A
C50          C51   1.405   1_545  A
C50          H54   1.083   1_545  S
C51         C828   1.496       .  S
C51          C52   1.404   1_565  A
C52          H55   1.083   1_545  S
C56          C57   1.409       .  A
C56          C61   1.415       .  A
C56         C249   1.485       .  S
C57          C58   1.400       .  A
C57          H62   1.083       .  S
C58          C59   1.403       .  A
C59          C60   1.403       .  A
C59          H63   1.083       .  S
C60          C61   1.405       .  A
C61          H64   1.083       .  S
Fe65         O81   2.083   1_556  S
Fe65         O71   2.067   1_556  S
Fe65        O410   2.066       .  S
Fe65        O402   2.070       .  S
Fe65        O408   1.961       .  S
Fe66         O77   2.069       .  S
Fe66         O82   2.070       .  S
Fe66        O401   2.062       .  S
Fe66        O405   2.053       .  S
Fe66         O76   1.964       .  S
Fe67         O72   2.071       .  S
Fe67         O68   2.071       .  S
Fe67        O417   2.076       .  S
Fe67        O411   2.071       .  S
Fe67         O76   1.963       .  S
O68          C75   1.269       .  A
O69        Fe398   2.062   1_554  S
O69          C83   1.269       .  A
O70        Fe397   2.070       .  S
O70          C75   1.271       .  A
O71          C74   1.270       .  A
O72          C84   1.269       .  A
O73        Fe398   2.053   1_554  S
O73          C86   1.265       .  A
C74         C308   1.497       .  S
C74          O79   1.272       .  A
C75         C319   1.491       .  S
O76        Fe397   1.961       .  S
O77          C80   1.273       .  A
O78        Fe397   2.066       .  S
O78          C80   1.272       .  A
O79        Fe399   2.071   1_554  S
C80         C252   1.492       .  S
O81          C86   1.271       .  A
O82          C84   1.268       .  A
C83         C221   1.505       .  S
C83          O85   1.272       .  A
C84         C266   1.483       .  S
O85        Fe399   2.076   1_554  S
C86         C235   1.488       .  S
C87          C88   1.414       .  A
C87          C92   1.410       .  A
C87         C238   1.486       .  S
C88          C89   1.406       .  A
C88          H93   1.083       .  S
C89          C90   1.403       .  A
C90          C91   1.404       .  A
C90          H94   1.083       .  S
C91          C92   1.402       .  A
C92          H95   1.083       .  S
C96          C97   1.421       .  A
C96         C101   1.425   1_545  A
C96         C224   1.539       .  S
C97          C98   1.404       .  A
C97         H102   1.082       .  S
C98          C99   1.400   1_545  A
C99         C100   1.399       .  A
C99         H103   1.083       .  S
C100        C828   1.500       .  S
C100        C101   1.407       .  A
C101        H104   1.076       .  S
C105        C106   1.414       .  A
C105        C110   1.418       .  A
C105        C207   1.502       .  S
C106        C107   1.403   1_455  A
C106        H111   1.084   1_455  S
C107       C1332   1.492       .  S
C107        C108   1.404   1_655  A
C108        C109   1.402       .  A
C108        H112   1.083   1_455  S
C109        C163   1.505       .  S
C109        C110   1.405       .  A
C110        H113   1.081       .  S
C114        C115   1.408       .  A
C114        C119   1.409       .  A
C114        C193   1.478       .  S
C115        C116   1.402   1_455  A
C115        H120   1.084   1_455  S
C116       C1332   1.494       .  S
C116        C117   1.404   1_655  A
C117        C118   1.404       .  A
C117        H121   1.083   1_455  S
C118        C163   1.499       .  S
C118        C119   1.403       .  A
C119        H122   1.083       .  S
Fe123       O139   2.053       .  S
Fe123       O129   2.053       .  S
Fe123       O468   2.064       .  S
Fe123       O460   2.053       .  S
Fe123       O466   1.970       .  S
Fe124       O135   2.057       .  S
Fe124       O140   2.068       .  S
Fe124       O459   2.055   1_554  S
Fe124       O463   2.070   1_554  S
Fe124       O134   1.981       .  S
Fe125       O130   2.058       .  S
Fe125       O126   2.075       .  S
Fe125       O475   2.068   1_554  S
Fe125       O469   2.060   1_554  S
Fe125       O134   1.981       .  S
O126        C133   1.270       .  A
O127       Fe456   2.055       .  S
O127        C141   1.267       .  A
O128       Fe455   2.053       .  S
O128        C133   1.267       .  A
O129        C132   1.265       .  A
O130        C142   1.268       .  A
O131       Fe456   2.070       .  S
O131        C144   1.269       .  A
C132        C294   1.517       .  S
C132        O137   1.266       .  A
C133        C280   1.485       .  S
O134       Fe455   1.970       .  S
O135        C138   1.267       .  A
O136       Fe455   2.064       .  S
O136        C138   1.267       .  A
O137       Fe457   2.060       .  S
C138        C196   1.476       .  S
O139        C144   1.267       .  A
O140        C142   1.269       .  A
C141        C168   1.487       .  S
C141        O143   1.269       .  A
C142        C182   1.476       .  S
O143       Fe457   2.068       .  S
C144        C210   1.495       .  S
C145        C146   1.416       .  A
C145        C150   1.411       .  A
C145        C165   1.494       .  S
C146        C147   1.406       .  A
C146        H151   1.082       .  S
C147        C148   1.402       .  A
C148        C149   1.402       .  A
C148        H152   1.082       .  S
C149        C150   1.400       .  A
C150        H153   1.084       .  S
C154        C155   1.410       .  A
C154        C159   1.409       .  A
C154        C179   1.478       .  S
C155        C156   1.402       .  A
C155        H160   1.084       .  S
C156        C157   1.403       .  A
C157        C158   1.404       .  A
C157        H161   1.082       .  S
C158        C159   1.403       .  A
C159        H162   1.083       .  S
C163        C164   1.347       .  D
C164        C715   1.496       .  S
C164        C764   1.500       .  S
C165        C166   1.416       .  A
C165        C170   1.418       .  A
C166        C167   1.415       .  A
C166        C171   1.450       .  S
C167        C168   1.414       .  A
C167        C174   1.451       .  S
C168        C169   1.414       .  A
C169        C170   1.406       .  A
C169        C172   1.454       .  S
C170        C173   1.454       .  S
C171        N178   1.158       .  T
C172        N509   1.158       .  T
C173        N175   1.158       .  T
C174        N176   1.157       .  T
N177        C504   1.158       .  T
C179        C180   1.411       .  A
C179        C184   1.410       .  A
C180        C181   1.405       .  A
C180        C185   1.453       .  S
C181        C182   1.412       .  A
C181        C188   1.452       .  S
C182        C183   1.412       .  A
C183        C184   1.412       .  A
C183        C186   1.448       .  S
C184        C187   1.449       .  S
C185        N192   1.157       .  T
C186        N191   1.157       .  T
C187        N189   1.157       .  T
C188        N522   1.157       .  T
N190        C520   1.157       .  T
C193        C194   1.411       .  A
C193        C198   1.411       .  A
C194        C195   1.413       .  A
C194        C199   1.450       .  S
C195        C196   1.412       .  A
C195        C202   1.450       .  S
C196        C197   1.412       .  A
C197        C198   1.405       .  A
C197        C200   1.453       .  S
C198        C201   1.453       .  S
C199        N206   1.157       .  T
C200        N537   1.157       .  T
C201        N203   1.157       .  T
C202        N204   1.157       .  T
N205        C532   1.157       .  T
C207        C208   1.418       .  A
C207        C212   1.417       .  A
C208        C209   1.407       .  A
C208        C213   1.450   1_455  S
C209        C210   1.416       .  A
C209        C216   1.455       .  S
C210        C211   1.417       .  A
C211        C212   1.417       .  A
C211        C214   1.452       .  S
C212        C215   1.451       .  S
C213       N1548   1.156       .  T
C214        N219   1.158       .  T
C215        N217   1.158       .  T
C216        N218   1.158       .  T
N220       C1541   1.156       .  T
C221        C222   1.414       .  A
C221        C226   1.414       .  A
C222        C223   1.416       .  A
C222        C227   1.456       .  S
C223        C224   1.433       .  A
C223        C230   1.450   1_545  S
C224        C225   1.435       .  A
C225        C226   1.415       .  A
C225        C228   1.454       .  S
C226        C229   1.456       .  S
C227        N234   1.158       .  T
C228        N233   1.158       .  T
C229        N231   1.158       .  T
C230        N896   1.158       .  T
N232        C894   1.158       .  T
C235        C236   1.413       .  A
C235        C240   1.416       .  A
C236        C237   1.415       .  A
C236        C241   1.449       .  S
C237        C238   1.413       .  A
C237        C244   1.450       .  S
C238        C239   1.412       .  A
C239        C240   1.408       .  A
C239        C242   1.453       .  S
C240        C243   1.453       .  S
C241        N248   1.157       .  T
C242        N247   1.157       .  T
C243        N577   1.157       .  T
C244        N246   1.157       .  T
N245        C575   1.157       .  T
C249        C250   1.412       .  A
C249        C254   1.410       .  A
C250        C251   1.415       .  A
C250        C255   1.451       .  S
C251        C252   1.417       .  A
C251        C258   1.449       .  S
C252        C253   1.419       .  A
C253        C254   1.406       .  A
C253        C256   1.453       .  S
C254        C257   1.453       .  S
C255        N262   1.157       .  T
C256        N261   1.158       .  T
C257        N259   1.157       .  T
C258        N260   1.157       .  T
C263        C264   1.410       .  A
C263        C268   1.411       .  A
C264        C265   1.406       .  A
C264        C269   1.453       .  S
C265        C266   1.413       .  A
C265        C272   1.451       .  S
C266        C267   1.414       .  A
C267        C268   1.415       .  A
C267        C270   1.449       .  S
C268        C271   1.450       .  S
C269        N276   1.157       .  T
C270        N275   1.157       .  T
C271        N273   1.157       .  T
C272        N606   1.156       .  T
N274        C604   1.156   1_554  T
C277        C278   1.415       .  A
C277        C282   1.416       .  A
C278        C279   1.406       .  A
C278        C283   1.454       .  S
C279        C280   1.414       .  A
C279        C286   1.454       .  S
C280        C281   1.413       .  A
C281        C282   1.416       .  A
C281        C284   1.450       .  S
C282        C285   1.450       .  S
C283        N290   1.157   1_455  T
C284        N289   1.157       .  T
C285        N287   1.157       .  T
C286        N620   1.157       .  T
N288        C618   1.157       .  T
C291        C292   1.436       .  A
C291        C296   1.437       .  A
C292        C293   1.416       .  A
C292        C297   1.453   1_455  S
C293        C294   1.420       .  A
C293        C300   1.458       .  S
C294        C295   1.419       .  A
C295        C296   1.417       .  A
C295        C298   1.457       .  S
C296        C299   1.452       .  S
C297       N1632   1.158       .  T
C298        N303   1.158       .  T
C299        N301   1.158       .  T
C300        N302   1.158       .  T
N304       C1625   1.158       .  T
C305        C306   1.421       .  A
C305        C310   1.416       .  A
C306        C307   1.412       .  A
C306        C311   1.454   1_545  S
C307        C308   1.416       .  A
C307        C314   1.453       .  S
C308        C309   1.418       .  A
C309        C310   1.412       .  A
C309        C312   1.451       .  S
C310        C313   1.452       .  S
C311        N982   1.158       .  T
C312        N317   1.157       .  T
C313        N315   1.158       .  T
C314        N316   1.157       .  T
N318        C975   1.158       .  T
C319        C320   1.416       .  A
C319        C324   1.414       .  A
C320        C321   1.414       .  A
C320        C325   1.449       .  S
C321        C322   1.415       .  A
C321        C328   1.451       .  S
C322        C323   1.416       .  A
C323        C324   1.411       .  A
C323        C326   1.452       .  S
C324        C327   1.452       .  S
C325        N332   1.157       .  T
C326        N331   1.157       .  T
C327        N329   1.157       .  T
C328        N330   1.157       .  T
C333        C334   1.345       .  D
C333        C390   1.496       .  S
C333        C421   1.502       .  S
C334        C479   1.503       .  S
C334        C488   1.497       .  S
C335        C336   1.347       .  D
C335        C392   1.500       .  S
C335        C423   1.497       .  S
C336       C1767   1.492       .  S
C336       C1776   1.494       .  S
C337        C338   1.347       .  D
C337       C1689   1.496       .  S
C337        C370   1.491       .  S
C338        C341   1.500       .  S
C338        C350   1.504       .  S
C339        C340   1.415       .  A
C339        C344   1.415       .  A
C339        C654   1.495       .  S
C340        C341   1.406       .  A
C340        H345   1.084       .  S
C341        C342   1.403       .  A
C342        C343   1.402   1_545  A
C342        H346   1.083   1_545  S
C343       C1021   1.500       .  S
C343        C344   1.402   1_565  A
C344        H347   1.082   1_545  S
C348        C349   1.420       .  A
C348        C353   1.413       .  A
C348        C637   1.502       .  S
C349        C350   1.404       .  A
C349        H354   1.081       .  S
C350        C351   1.399       .  A
C351        C352   1.401   1_545  A
C351        H355   1.083   1_545  S
C352       C1021   1.491       .  S
C352        C353   1.403   1_565  A
C353        H356   1.083   1_545  S
C357        C358   1.343       .  D
C357       C1007   1.500       .  S
C357       C1016   1.491       .  S
C358        C481   1.490       .  S
C358        C490   1.497       .  S
C359        C360   1.423       .  A
C359        C364   1.421       .  A
C359        C623   1.543       .  S
C360        C361   1.406   1_455  A
C360        H365   1.079   1_455  S
C361       C1665   1.496       .  S
C361        C362   1.401       .  A
C362        C363   1.400   1_655  A
C362        H366   1.083       .  S
C363        C377   1.496       .  S
C363        C364   1.404       .  A
C364        H367   1.077       .  S
C368        C369   1.410       .  A
C368        C373   1.413       .  A
C368        C609   1.491       .  S
C369       C1698   1.400   1_455  A
C369       H1702   1.084   1_455  S
C370       C1697   1.400       .  A
C370       C1699   1.403       .  A
C371       C1698   1.403       .  A
C371        C372   1.403   1_655  A
C371        H375   1.083       .  S
C372        C377   1.499       .  S
C372        C373   1.406       .  A
C373        H376   1.082       .  S
H374       C1697   1.084       .  S
C377        C378   1.346       .  D
C378        C381   1.498       .  S
C378        C430   1.493       .  S
C379        C380   1.410       .  A
C379        C384   1.409       .  A
C379        C595   1.481       .  S
C380        C381   1.404       .  A
C380        H385   1.083       .  S
C381        C382   1.404       .  A
C382        C383   1.405   1_545  A
C382        H386   1.083   1_545  S
C383       C1160   1.496       .  S
C383        C384   1.404   1_565  A
C384        H387   1.083   1_545  S
C388        C389   1.409       .  A
C388        C393   1.415       .  A
C388        C581   1.485       .  S
C389        C390   1.400       .  A
C389        H394   1.083       .  S
C390        C391   1.403       .  A
C391        C392   1.403       .  A
C391        H395   1.083       .  S
C392        C393   1.405       .  A
C393        H396   1.083       .  S
Fe397       O413   2.083       .  S
Fe397       O403   2.067       .  S
Fe398       O409   2.069       .  S
Fe398       O414   2.070       .  S
Fe398       O408   1.964       .  S
Fe399       O404   2.071       .  S
Fe399       O400   2.071       .  S
Fe399       O408   1.963       .  S
O400        C407   1.269       .  A
O401        C415   1.269       .  A
O402        C407   1.271       .  A
O403        C406   1.270       .  A
O404        C416   1.269       .  A
O405        C418   1.265       .  A
C406        C640   1.497       .  S
C406        O411   1.272       .  A
C407        C651   1.491       .  S
O409        C412   1.273       .  A
O410        C412   1.272       .  A
C412        C584   1.492       .  S
O413        C418   1.271       .  A
O414        C416   1.268       .  A
C415        C553   1.505       .  S
C415        O417   1.272       .  A
C416        C598   1.483       .  S
C418        C567   1.488       .  S
C419        C420   1.414       .  A
C419        C424   1.410       .  A
C419        C570   1.486       .  S
C420        C421   1.406       .  A
C420        H425   1.083       .  S
C421        C422   1.403       .  A
C422        C423   1.404       .  A
C422        H426   1.083       .  S
C423        C424   1.402       .  A
C424        H427   1.083       .  S
C428        C429   1.421       .  A
C428        C433   1.425   1_545  A
C428        C556   1.539       .  S
C429        C430   1.404       .  A
C429        H434   1.082       .  S
C430        C431   1.400   1_545  A
C431        C432   1.399       .  A
C431        H435   1.083       .  S
C432       C1160   1.500       .  S
C432        C433   1.407       .  A
C433        H436   1.076       .  S
C437        C438   1.414       .  A
C437        C442   1.418       .  A
C437        C539   1.502       .  S
C438        C439   1.403   1_455  A
C438        H443   1.084   1_455  S
C439       C1664   1.492       .  S
C439        C440   1.404   1_655  A
C440        C441   1.402       .  A
C440        H444   1.083   1_455  S
C441        C495   1.505       .  S
C441        C442   1.405       .  A
C442        H445   1.081       .  S
C446        C447   1.408       .  A
C446        C451   1.409       .  A
C446        C525   1.478       .  S
C447        C448   1.402   1_455  A
C447        H452   1.084   1_455  S
C448       C1664   1.494       .  S
C448        C449   1.404   1_655  A
C449        C450   1.404       .  A
C449        H453   1.083   1_455  S
C450        C495   1.499       .  S
C450        C451   1.403       .  A
C451        H454   1.083       .  S
Fe455       O471   2.053   1_554  S
Fe455       O461   2.053   1_554  S
Fe456       O467   2.057       .  S
Fe456       O472   2.068       .  S
Fe456       O466   1.981       .  S
Fe457       O462   2.058       .  S
Fe457       O458   2.075       .  S
Fe457       O466   1.981       .  S
O458        C465   1.270       .  A
O459        C473   1.267       .  A
O460        C465   1.267       .  A
O461        C464   1.265       .  A
O462        C474   1.268       .  A
O463        C476   1.269       .  A
C464        C626   1.517       .  S
C464        O469   1.266       .  A
C465        C612   1.485       .  S
O467        C470   1.267       .  A
O468        C470   1.267       .  A
C470        C528   1.476       .  S
O471        C476   1.267       .  A
O472        C474   1.269       .  A
C473        C500   1.487       .  S
C473        O475   1.269       .  A
C474        C514   1.476       .  S
C476        C542   1.495       .  S
C477        C478   1.416       .  A
C477        C482   1.411       .  A
C477        C497   1.494       .  S
C478        C479   1.406       .  A
C478        H483   1.082       .  S
C479        C480   1.402       .  A
C480        C481   1.402       .  A
C480        H484   1.082       .  S
C481        C482   1.400       .  A
C482        H485   1.084       .  S
C486        C487   1.410       .  A
C486        C491   1.409       .  A
C486        C511   1.478       .  S
C487        C488   1.402       .  A
C487        H492   1.084       .  S
C488        C489   1.403       .  A
C489        C490   1.404       .  A
C489        H493   1.082       .  S
C490        C491   1.403       .  A
C491        H494   1.083       .  S
C495        C496   1.347       .  D
C496       C1047   1.496       .  S
C496       C1096   1.500       .  S
C497        C498   1.416       .  A
C497        C502   1.418       .  A
C498        C499   1.415       .  A
C498        C503   1.450       .  S
C499        C500   1.414       .  A
C499        C506   1.451       .  S
C500        C501   1.414       .  A
C501        C502   1.406       .  A
C501        C504   1.454       .  S
C502        C505   1.454       .  S
C503        N510   1.158       .  T
C505        N507   1.158       .  T
C506        N508   1.157       .  T
C511        C512   1.411       .  A
C511        C516   1.410       .  A
C512        C513   1.405       .  A
C512        C517   1.453       .  S
C513        C514   1.412       .  A
C513        C520   1.452       .  S
C514        C515   1.412       .  A
C515        C516   1.412       .  A
C515        C518   1.448       .  S
C516        C519   1.449       .  S
C517        N524   1.157       .  T
C518        N523   1.157       .  T
C519        N521   1.157       .  T
C525        C526   1.411       .  A
C525        C530   1.411       .  A
C526        C527   1.413       .  A
C526        C531   1.450       .  S
C527        C528   1.412       .  A
C527        C534   1.450       .  S
C528        C529   1.412       .  A
C529        C530   1.405       .  A
C529        C532   1.453       .  S
C530        C533   1.453       .  S
C531        N538   1.157       .  T
C533        N535   1.157       .  T
C534        N536   1.157       .  T
C539        C540   1.418       .  A
C539        C544   1.417       .  A
C540        C541   1.407       .  A
C540        C545   1.450   1_455  S
C541        C542   1.416       .  A
C541        C548   1.455       .  S
C542        C543   1.417       .  A
C543        C544   1.417       .  A
C543        C546   1.452       .  S
C544        C547   1.451       .  S
C545       N1880   1.156       .  T
C546        N551   1.158       .  T
C547        N549   1.158       .  T
C548        N550   1.158       .  T
N552       C1873   1.156       .  T
C553        C554   1.414       .  A
C553        C558   1.414       .  A
C554        C555   1.416       .  A
C554        C559   1.456       .  S
C555        C556   1.433       .  A
C555        C562   1.450   1_545  S
C556        C557   1.435       .  A
C557        C558   1.415       .  A
C557        C560   1.454       .  S
C558        C561   1.456       .  S
C559        N566   1.158       .  T
C560        N565   1.158       .  T
C561        N563   1.158       .  T
C562       N1228   1.158       .  T
N564       C1226   1.158       .  T
C567        C568   1.413       .  A
C567        C572   1.416       .  A
C568        C569   1.415       .  A
C568        C573   1.449       .  S
C569        C570   1.413       .  A
C569        C576   1.450       .  S
C570        C571   1.412       .  A
C571        C572   1.408       .  A
C571        C574   1.453       .  S
C572        C575   1.453       .  S
C573        N580   1.157       .  T
C574        N579   1.157       .  T
C576        N578   1.157       .  T
C581        C582   1.412       .  A
C581        C586   1.410       .  A
C582        C583   1.415       .  A
C582        C587   1.451       .  S
C583        C584   1.417       .  A
C583        C590   1.449       .  S
C584        C585   1.419       .  A
C585        C586   1.406       .  A
C585        C588   1.453       .  S
C586        C589   1.453       .  S
C587        N594   1.157       .  T
C588        N593   1.158       .  T
C589        N591   1.157       .  T
C590        N592   1.157       .  T
C595        C596   1.410       .  A
C595        C600   1.411       .  A
C596        C597   1.406       .  A
C596        C601   1.453       .  S
C597        C598   1.413       .  A
C597        C604   1.451       .  S
C598        C599   1.414       .  A
C599        C600   1.415       .  A
C599        C602   1.449       .  S
C600        C603   1.450       .  S
C601        N608   1.157       .  T
C602        N607   1.157       .  T
C603        N605   1.157       .  T
C609        C610   1.415       .  A
C609        C614   1.416       .  A
C610        C611   1.406       .  A
C610        C615   1.454       .  S
C611        C612   1.414       .  A
C611        C618   1.454       .  S
C612        C613   1.413       .  A
C613        C614   1.416       .  A
C613        C616   1.450       .  S
C614        C617   1.450       .  S
C615        N622   1.157   1_455  T
C616        N621   1.157       .  T
C617        N619   1.157       .  T
C623        C624   1.436       .  A
C623        C628   1.437       .  A
C624        C625   1.416       .  A
C624        C629   1.453   1_455  S
C625        C626   1.420       .  A
C625        C632   1.458       .  S
C626        C627   1.419       .  A
C627        C628   1.417       .  A
C627        C630   1.457       .  S
C628        C631   1.452       .  S
C629       N1964   1.158       .  T
C630        N635   1.158       .  T
C631        N633   1.158       .  T
C632        N634   1.158       .  T
N636       C1957   1.158       .  T
C637        C638   1.421       .  A
C637        C642   1.416       .  A
C638        C639   1.412       .  A
C638        C643   1.454   1_545  S
C639        C640   1.416       .  A
C639        C646   1.453       .  S
C640        C641   1.418       .  A
C641        C642   1.412       .  A
C641        C644   1.451       .  S
C642        C645   1.452       .  S
C643       N1314   1.158       .  T
C644        N649   1.157       .  T
C645        N647   1.158       .  T
C646        N648   1.157       .  T
N650       C1307   1.158       .  T
C651        C652   1.416       .  A
C651        C656   1.414       .  A
C652        C653   1.414       .  A
C652        C657   1.449       .  S
C653        C654   1.415       .  A
C653        C660   1.451       .  S
C654        C655   1.416       .  A
C655        C656   1.411       .  A
C655        C658   1.452       .  S
C656        C659   1.452       .  S
C657        N664   1.157       .  T
C658        N663   1.157       .  T
C659        N661   1.157       .  T
C660        N662   1.157       .  T
C665        C666   1.345       .  D
C665        C722   1.496       .  S
C665        C753   1.502       .  S
C666        C811   1.503       .  S
C666        C820   1.497       .  S
C667        C668   1.347       .  D
C667        C724   1.500       .  S
C667        C755   1.497       .  S
C668       C2099   1.492       .  S
C668       C2108   1.494       .  S
C669        C670   1.347       .  D
C669       C2021   1.496       .  S
C669        C702   1.491       .  S
C670        C673   1.500       .  S
C670        C682   1.504       .  S
C671        C672   1.415       .  A
C671        C676   1.415       .  A
C671        C986   1.495       .  S
C672        C673   1.406       .  A
C672        H677   1.084       .  S
C673        C674   1.403       .  A
C674        C675   1.402       .  A
C674        H678   1.083       .  S
C675        C676   1.402       .  A
C676        H679   1.082       .  S
C680        C681   1.420       .  A
C680        C685   1.413       .  A
C680        C969   1.503       .  S
C681        C682   1.404       .  A
C681        H686   1.081       .  S
C682        C683   1.399       .  A
C683        C684   1.401       .  A
C683        H687   1.083       .  S
C684        C685   1.403       .  A
C685        H688   1.083       .  S
C689        C690   1.343       .  D
C690        C813   1.490       .  S
C690        C822   1.497       .  S
C691        C692   1.423       .  A
C691        C696   1.421       .  A
C691        C955   1.543       .  S
C692        C693   1.406   1_455  A
C692        H697   1.079   1_455  S
C693       C1997   1.496       .  S
C693        C694   1.401       .  A
C694        C695   1.400   1_655  A
C694        H698   1.083       .  S
C695        C709   1.496       .  S
C695        C696   1.404       .  A
C696        H699   1.077       .  S
C700        C701   1.410       .  A
C700        C705   1.413       .  A
C700        C941   1.491       .  S
C701       C2030   1.400   1_455  A
C701       H2034   1.084   1_455  S
C702       C2029   1.400       .  A
C702       C2031   1.403       .  A
C703       C2030   1.403       .  A
C703        C704   1.403   1_655  A
C703        H707   1.083       .  S
C704        C709   1.499       .  S
C704        C705   1.406       .  A
C705        H708   1.082       .  S
H706       C2029   1.084       .  S
C709        C710   1.346       .  D
C710        C713   1.498       .  S
C710        C762   1.493       .  S
C711        C712   1.410       .  A
C711        C716   1.409       .  A
C711        C927   1.481       .  S
C712        C713   1.404       .  A
C712        H717   1.083       .  S
C713        C714   1.404       .  A
C714        C715   1.405       .  A
C714        H718   1.083       .  S
C715        C716   1.404       .  A
C716        H719   1.083       .  S
C720        C721   1.409       .  A
C720        C725   1.415       .  A
C720        C913   1.485       .  S
C721        C722   1.400       .  A
C721        H726   1.083       .  S
C722        C723   1.403       .  A
C723        C724   1.403       .  A
C723        H727   1.083       .  S
C724        C725   1.405       .  A
C725        H728   1.083       .  S
Fe729       O745   2.083   1_556  S
Fe729       O735   2.068   1_556  S
Fe729      O1074   2.066       .  S
Fe729      O1066   2.069       .  S
Fe729      O1072   1.961       .  S
Fe730      O1065   2.062       .  S
Fe730      O1069   2.053       .  S
Fe730       O741   2.069       .  S
Fe730       O746   2.070       .  S
Fe730       O740   1.964       .  S
Fe731      O1081   2.076       .  S
Fe731       O736   2.071       .  S
Fe731      O1075   2.071       .  S
Fe731       O732   2.071       .  S
Fe731       O740   1.963       .  S
O732        C739   1.269       .  A
O733      Fe1062   2.062   1_554  S
O733        C747   1.269       .  A
O734      Fe1061   2.069       .  S
O734        C739   1.271       .  A
O735        C738   1.270       .  A
O736        C748   1.269       .  A
O737      Fe1062   2.053   1_554  S
O737        C750   1.265       .  A
C738        C972   1.497       .  S
C738        O743   1.272       .  A
C739        C983   1.491       .  S
O740      Fe1061   1.961       .  S
O741        C744   1.273       .  A
O742      Fe1061   2.066       .  S
O742        C744   1.272       .  A
O743      Fe1063   2.071   1_554  S
C744        C916   1.492       .  S
O745        C750   1.271       .  A
O746        C748   1.268       .  A
C747        C885   1.505       .  S
C747        O749   1.271       .  A
C748        C930   1.483       .  S
O749      Fe1063   2.076   1_554  S
C750        C899   1.488       .  S
C751        C752   1.414       .  A
C751        C756   1.410       .  A
C751        C902   1.486       .  S
C752        C753   1.406       .  A
C752        H757   1.083       .  S
C753        C754   1.403       .  A
C754        C755   1.404       .  A
C754        H758   1.083       .  S
C755        C756   1.402       .  A
C756        H759   1.083       .  S
C760        C761   1.421       .  A
C760        C765   1.425       .  A
C760        C888   1.539       .  S
C761        C762   1.404       .  A
C761        H766   1.082       .  S
C762        C763   1.400       .  A
C763        C764   1.399       .  A
C763        H767   1.083       .  S
C764        C765   1.407       .  A
C765        H768   1.076       .  S
C769        C770   1.414       .  A
C769        C774   1.418       .  A
C769        C871   1.502       .  S
C770        C771   1.403   1_455  A
C770        H775   1.084   1_455  S
C771       C1996   1.492       .  S
C771        C772   1.404   1_655  A
C772        C773   1.402       .  A
C772        H776   1.083   1_455  S
C773        C827   1.505       .  S
C773        C774   1.405       .  A
C774        H777   1.081       .  S
C778        C779   1.408       .  A
C778        C783   1.409       .  A
C778        C857   1.478       .  S
C779        C780   1.402   1_455  A
C779        H784   1.084   1_455  S
C780       C1996   1.494       .  S
C780        C781   1.404   1_655  A
C781        C782   1.404       .  A
C781        H785   1.083   1_455  S
C782        C827   1.499       .  S
C782        C783   1.403       .  A
C783        H786   1.083       .  S
Fe787       O803   2.053       .  S
Fe787       O793   2.053       .  S
Fe787      O1132   2.064       .  S
Fe787      O1124   2.053       .  S
Fe787      O1130   1.970       .  S
Fe788      O1123   2.055   1_554  S
Fe788      O1127   2.070   1_554  S
Fe788       O799   2.057       .  S
Fe788       O804   2.068       .  S
Fe788       O798   1.981       .  S
Fe789      O1139   2.068   1_554  S
Fe789       O794   2.058       .  S
Fe789      O1133   2.060   1_554  S
Fe789       O790   2.075       .  S
Fe789       O798   1.981       .  S
O790        C797   1.270       .  A
O791      Fe1120   2.055       .  S
O791        C805   1.267       .  A
O792      Fe1119   2.053       .  S
O792        C797   1.267       .  A
O793        C796   1.265       .  A
O794        C806   1.268       .  A
O795      Fe1120   2.070       .  S
O795        C808   1.269       .  A
C796        C958   1.517       .  S
C796        O801   1.266       .  A
C797        C944   1.485       .  S
O798      Fe1119   1.970       .  S
O799        C802   1.267       .  A
O800      Fe1119   2.064       .  S
O800        C802   1.267       .  A
O801      Fe1121   2.060       .  S
C802        C860   1.476       .  S
O803        C808   1.267       .  A
O804        C806   1.269       .  A
C805        C832   1.487       .  S
C805        O807   1.269       .  A
C806        C846   1.476       .  S
O807      Fe1121   2.068       .  S
C808        C874   1.495       .  S
C809        C810   1.416       .  A
C809        C814   1.411       .  A
C809        C829   1.494       .  S
C810        C811   1.406       .  A
C810        H815   1.082       .  S
C811        C812   1.402       .  A
C812        C813   1.402       .  A
C812        H816   1.082       .  S
C813        C814   1.400       .  A
C814        H817   1.084       .  S
C818        C819   1.410       .  A
C818        C823   1.409       .  A
C818        C843   1.478       .  S
C819        C820   1.402       .  A
C819        H824   1.084       .  S
C820        C821   1.403       .  A
C821        C822   1.404       .  A
C821        H825   1.082       .  S
C822        C823   1.403       .  A
C823        H826   1.083       .  S
C827        C828   1.347       .  D
C829        C830   1.416       .  A
C829        C834   1.418       .  A
C830        C831   1.415       .  A
C830        C835   1.450       .  S
C831        C832   1.414       .  A
C831        C838   1.451       .  S
C832        C833   1.414       .  A
C833        C834   1.406       .  A
C833        C836   1.454       .  S
C834        C837   1.454       .  S
C835        N842   1.158       .  T
C836       N1173   1.158       .  T
C837        N839   1.158       .  T
C838        N840   1.157       .  T
N841       C1168   1.158       .  T
C843        C844   1.411       .  A
C843        C848   1.410       .  A
C844        C845   1.405       .  A
C844        C849   1.453       .  S
C845        C846   1.412       .  A
C845        C852   1.452       .  S
C846        C847   1.412       .  A
C847        C848   1.412       .  A
C847        C850   1.448       .  S
C848        C851   1.449       .  S
C849        N856   1.157       .  T
C850        N855   1.157       .  T
C851        N853   1.157       .  T
C852       N1186   1.157       .  T
N854       C1184   1.157       .  T
C857        C858   1.411       .  A
C857        C862   1.411       .  A
C858        C859   1.413       .  A
C858        C863   1.450       .  S
C859        C860   1.412       .  A
C859        C866   1.450       .  S
C860        C861   1.412       .  A
C861        C862   1.405       .  A
C861        C864   1.453       .  S
C862        C865   1.453       .  S
C863        N870   1.157       .  T
C864       N1201   1.157       .  T
C865        N867   1.157       .  T
C866        N868   1.157       .  T
N869       C1196   1.157       .  T
C871        C872   1.418       .  A
C871        C876   1.417       .  A
C872        C873   1.407       .  A
C872        C877   1.450   1_455  S
C873        C874   1.416       .  A
C873        C880   1.455       .  S
C874        C875   1.417       .  A
C875        C876   1.417       .  A
C875        C878   1.452       .  S
C876        C879   1.451       .  S
C877       N2212   1.156       .  T
C878        N883   1.158       .  T
C879        N881   1.158       .  T
C880        N882   1.158       .  T
N884       C2205   1.156       .  T
C885        C886   1.414       .  A
C885        C890   1.414       .  A
C886        C887   1.416       .  A
C886        C891   1.456       .  S
C887        C888   1.433       .  A
C887        C894   1.450       .  S
C888        C889   1.435       .  A
C889        C890   1.415       .  A
C889        C892   1.454       .  S
C890        C893   1.456       .  S
C891        N898   1.158       .  T
C892        N897   1.158       .  T
C893        N895   1.158       .  T
C899        C900   1.413       .  A
C899        C904   1.416       .  A
C900        C901   1.415       .  A
C900        C905   1.449       .  S
C901        C902   1.413       .  A
C901        C908   1.450       .  S
C902        C903   1.412       .  A
C903        C904   1.408       .  A
C903        C906   1.453       .  S
C904        C907   1.453       .  S
C905        N912   1.157       .  T
C906        N911   1.157       .  T
C907       N1241   1.157       .  T
C908        N910   1.157       .  T
N909       C1239   1.157       .  T
C913        C914   1.412       .  A
C913        C918   1.410       .  A
C914        C915   1.415       .  A
C914        C919   1.451       .  S
C915        C916   1.417       .  A
C915        C922   1.449       .  S
C916        C917   1.419       .  A
C917        C918   1.406       .  A
C917        C920   1.453       .  S
C918        C921   1.453       .  S
C919        N926   1.157       .  T
C920        N925   1.158       .  T
C921        N923   1.157       .  T
C922        N924   1.157       .  T
C927        C928   1.410       .  A
C927        C932   1.411       .  A
C928        C929   1.406       .  A
C928        C933   1.453       .  S
C929        C930   1.413       .  A
C929        C936   1.451       .  S
C930        C931   1.414       .  A
C931        C932   1.415       .  A
C931        C934   1.449       .  S
C932        C935   1.450       .  S
C933        N940   1.157       .  T
C934        N939   1.157       .  T
C935        N937   1.157       .  T
C936       N1270   1.156       .  T
N938       C1268   1.156   1_554  T
C941        C942   1.415       .  A
C941        C946   1.416       .  A
C942        C943   1.406       .  A
C942        C947   1.454       .  S
C943        C944   1.414       .  A
C943        C950   1.454       .  S
C944        C945   1.413       .  A
C945        C946   1.416       .  A
C945        C948   1.450       .  S
C946        C949   1.450       .  S
C947        N954   1.157   1_455  T
C948        N953   1.157       .  T
C949        N951   1.157       .  T
C950       N1284   1.157       .  T
N952       C1282   1.157       .  T
C955        C956   1.436       .  A
C955        C960   1.437       .  A
C956        C957   1.416       .  A
C956        C961   1.453   1_455  S
C957        C958   1.420       .  A
C957        C964   1.458       .  S
C958        C959   1.419       .  A
C959        C960   1.417       .  A
C959        C962   1.457       .  S
C960        C963   1.453       .  S
C961       N2296   1.158       .  T
C962        N967   1.158       .  T
C963        N965   1.158       .  T
C964        N966   1.158       .  T
N968       C2289   1.158       .  T
C969        C970   1.421       .  A
C969        C974   1.416       .  A
C970        C971   1.412       .  A
C970        C975   1.454       .  S
C971        C972   1.416       .  A
C971        C978   1.453       .  S
C972        C973   1.418       .  A
C973        C974   1.412       .  A
C973        C976   1.451       .  S
C974        C977   1.452       .  S
C976        N981   1.157       .  T
C977        N979   1.158       .  T
C978        N980   1.157       .  T
C983        C984   1.416       .  A
C983        C988   1.414       .  A
C984        C985   1.414       .  A
C984        C989   1.449       .  S
C985        C986   1.415       .  A
C985        C992   1.451       .  S
C986        C987   1.416       .  A
C987        C988   1.411       .  A
C987        C990   1.452       .  S
C988        C991   1.452       .  S
C989        N996   1.157       .  T
C990        N995   1.157       .  T
C991        N993   1.157       .  T
C992        N994   1.157       .  T
C997        C998   1.345       .  D
C997       C1054   1.496       .  S
C997       C1085   1.502       .  S
C998       C1143   1.503       .  S
C998       C1152   1.497       .  S
C999       C1000   1.347       .  D
C999       C1056   1.500       .  S
C999       C1087   1.497       .  S
C1000      C2431   1.492       .  S
C1000      C2440   1.494       .  S
C1001      C1002   1.347       .  D
C1001      C2353   1.496       .  S
C1001      C1034   1.491       .  S
C1002      C1005   1.500       .  S
C1002      C1014   1.504       .  S
C1003      C1004   1.415       .  A
C1003      C1008   1.415       .  A
C1003      C1318   1.495       .  S
C1004      C1005   1.406       .  A
C1004      H1009   1.084       .  S
C1005      C1006   1.403       .  A
C1006      C1007   1.402       .  A
C1006      H1010   1.083       .  S
C1007      C1008   1.402       .  A
C1008      H1011   1.082       .  S
C1012      C1013   1.420       .  A
C1012      C1017   1.413       .  A
C1012      C1301   1.503       .  S
C1013      C1014   1.404       .  A
C1013      H1018   1.081       .  S
C1014      C1015   1.399       .  A
C1015      C1016   1.401       .  A
C1015      H1019   1.083       .  S
C1016      C1017   1.403       .  A
C1017      H1020   1.083       .  S
C1021      C1022   1.343       .  D
C1022      C1145   1.490       .  S
C1022      C1154   1.497       .  S
C1023      C1024   1.423       .  A
C1023      C1028   1.421       .  A
C1023      C1287   1.543       .  S
C1024      C1025   1.406   1_455  A
C1024      H1029   1.079   1_455  S
C1025      C2329   1.496       .  S
C1025      C1026   1.401       .  A
C1026      C1027   1.400   1_655  A
C1026      H1030   1.083       .  S
C1027      C1041   1.496       .  S
C1027      C1028   1.404       .  A
C1028      H1031   1.077       .  S
C1032      C1033   1.410       .  A
C1032      C1037   1.413       .  A
C1032      C1273   1.491       .  S
C1033      C2362   1.400   1_455  A
C1033      H2366   1.084   1_455  S
C1034      C2361   1.400       .  A
C1034      C2363   1.403       .  A
C1035      C2362   1.403       .  A
C1035      C1036   1.403   1_655  A
C1035      H1039   1.083       .  S
C1036      C1041   1.499       .  S
C1036      C1037   1.406       .  A
C1037      H1040   1.082       .  S
H1038      C2361   1.084       .  S
C1041      C1042   1.346       .  D
C1042      C1045   1.498       .  S
C1042      C1094   1.493       .  S
C1043      C1044   1.410       .  A
C1043      C1048   1.409       .  A
C1043      C1259   1.481       .  S
C1044      C1045   1.404       .  A
C1044      H1049   1.083       .  S
C1045      C1046   1.404       .  A
C1046      C1047   1.405       .  A
C1046      H1050   1.083       .  S
C1047      C1048   1.404       .  A
C1048      H1051   1.083       .  S
C1052      C1053   1.409       .  A
C1052      C1057   1.415       .  A
C1052      C1245   1.485       .  S
C1053      C1054   1.400       .  A
C1053      H1058   1.083       .  S
C1054      C1055   1.403       .  A
C1055      C1056   1.403       .  A
C1055      H1059   1.083       .  S
C1056      C1057   1.405       .  A
C1057      H1060   1.083       .  S
Fe1061     O1077   2.083       .  S
Fe1061     O1067   2.067       .  S
Fe1062     O1073   2.069       .  S
Fe1062     O1078   2.070       .  S
Fe1062     O1072   1.964       .  S
Fe1063     O1068   2.071       .  S
Fe1063     O1064   2.071       .  S
Fe1063     O1072   1.963       .  S
O1064      C1071   1.269       .  A
O1065      C1079   1.269       .  A
O1066      C1071   1.271       .  A
O1067      C1070   1.270       .  A
O1068      C1080   1.269       .  A
O1069      C1082   1.265       .  A
C1070      C1304   1.497       .  S
C1070      O1075   1.272       .  A
C1071      C1315   1.491       .  S
O1073      C1076   1.273       .  A
O1074      C1076   1.272       .  A
C1076      C1248   1.492       .  S
O1077      C1082   1.271       .  A
O1078      C1080   1.268       .  A
C1079      C1217   1.505       .  S
C1079      O1081   1.271       .  A
C1080      C1262   1.483       .  S
C1082      C1231   1.488       .  S
C1083      C1084   1.414       .  A
C1083      C1088   1.410       .  A
C1083      C1234   1.486       .  S
C1084      C1085   1.406       .  A
C1084      H1089   1.083       .  S
C1085      C1086   1.403       .  A
C1086      C1087   1.404       .  A
C1086      H1090   1.083       .  S
C1087      C1088   1.402       .  A
C1088      H1091   1.083       .  S
C1092      C1093   1.421       .  A
C1092      C1097   1.425       .  A
C1092      C1220   1.539       .  S
C1093      C1094   1.404       .  A
C1093      H1098   1.082       .  S
C1094      C1095   1.400       .  A
C1095      C1096   1.399       .  A
C1095      H1099   1.083       .  S
C1096      C1097   1.407       .  A
C1097      H1100   1.076       .  S
C1101      C1102   1.414       .  A
C1101      C1106   1.418       .  A
C1101      C1203   1.502       .  S
C1102      C1103   1.403   1_455  A
C1102      H1107   1.084   1_455  S
C1103      C2328   1.492       .  S
C1103      C1104   1.404   1_655  A
C1104      C1105   1.402       .  A
C1104      H1108   1.083   1_455  S
C1105      C1159   1.505       .  S
C1105      C1106   1.405       .  A
C1106      H1109   1.081       .  S
C1110      C1111   1.408       .  A
C1110      C1115   1.409       .  A
C1110      C1189   1.478       .  S
C1111      C1112   1.402   1_455  A
C1111      H1116   1.084   1_455  S
C1112      C2328   1.494       .  S
C1112      C1113   1.404   1_655  A
C1113      C1114   1.404       .  A
C1113      H1117   1.083   1_455  S
C1114      C1159   1.499       .  S
C1114      C1115   1.403       .  A
C1115      H1118   1.083       .  S
Fe1119     O1135   2.053   1_554  S
Fe1119     O1125   2.053   1_554  S
Fe1120     O1131   2.057       .  S
Fe1120     O1136   2.068       .  S
Fe1120     O1130   1.981       .  S
Fe1121     O1126   2.058       .  S
Fe1121     O1122   2.075       .  S
Fe1121     O1130   1.981       .  S
O1122      C1129   1.270       .  A
O1123      C1137   1.267       .  A
O1124      C1129   1.267       .  A
O1125      C1128   1.265       .  A
O1126      C1138   1.268       .  A
O1127      C1140   1.269       .  A
C1128      C1290   1.517       .  S
C1128      O1133   1.266       .  A
C1129      C1276   1.485       .  S
O1131      C1134   1.267       .  A
O1132      C1134   1.267       .  A
C1134      C1192   1.476       .  S
O1135      C1140   1.267       .  A
O1136      C1138   1.269       .  A
C1137      C1164   1.487       .  S
C1137      O1139   1.269       .  A
C1138      C1178   1.476       .  S
C1140      C1206   1.495       .  S
C1141      C1142   1.416       .  A
C1141      C1146   1.411       .  A
C1141      C1161   1.494       .  S
C1142      C1143   1.406       .  A
C1142      H1147   1.082       .  S
C1143      C1144   1.402       .  A
C1144      C1145   1.402       .  A
C1144      H1148   1.082       .  S
C1145      C1146   1.400       .  A
C1146      H1149   1.084       .  S
C1150      C1151   1.410       .  A
C1150      C1155   1.409       .  A
C1150      C1175   1.478       .  S
C1151      C1152   1.402       .  A
C1151      H1156   1.084       .  S
C1152      C1153   1.403       .  A
C1153      C1154   1.404       .  A
C1153      H1157   1.082       .  S
C1154      C1155   1.403       .  A
C1155      H1158   1.083       .  S
C1159      C1160   1.347       .  D
C1161      C1162   1.416       .  A
C1161      C1166   1.418       .  A
C1162      C1163   1.415       .  A
C1162      C1167   1.450       .  S
C1163      C1164   1.414       .  A
C1163      C1170   1.451       .  S
C1164      C1165   1.414       .  A
C1165      C1166   1.406       .  A
C1165      C1168   1.454       .  S
C1166      C1169   1.454       .  S
C1167      N1174   1.158       .  T
C1169      N1171   1.158       .  T
C1170      N1172   1.157       .  T
C1175      C1176   1.411       .  A
C1175      C1180   1.410       .  A
C1176      C1177   1.405       .  A
C1176      C1181   1.453       .  S
C1177      C1178   1.412       .  A
C1177      C1184   1.452       .  S
C1178      C1179   1.412       .  A
C1179      C1180   1.412       .  A
C1179      C1182   1.448       .  S
C1180      C1183   1.449       .  S
C1181      N1188   1.157       .  T
C1182      N1187   1.157       .  T
C1183      N1185   1.157       .  T
C1189      C1190   1.411       .  A
C1189      C1194   1.411       .  A
C1190      C1191   1.413       .  A
C1190      C1195   1.450       .  S
C1191      C1192   1.412       .  A
C1191      C1198   1.450       .  S
C1192      C1193   1.412       .  A
C1193      C1194   1.405       .  A
C1193      C1196   1.453       .  S
C1194      C1197   1.453       .  S
C1195      N1202   1.157       .  T
C1197      N1199   1.157       .  T
C1198      N1200   1.157       .  T
C1203      C1204   1.418       .  A
C1203      C1208   1.417       .  A
C1204      C1205   1.407       .  A
C1204      C1209   1.450   1_455  S
C1205      C1206   1.416       .  A
C1205      C1212   1.455       .  S
C1206      C1207   1.417       .  A
C1207      C1208   1.417       .  A
C1207      C1210   1.452       .  S
C1208      C1211   1.451       .  S
C1209      N2544   1.156       .  T
C1210      N1215   1.158       .  T
C1211      N1213   1.158       .  T
C1212      N1214   1.158       .  T
N1216      C2537   1.156       .  T
C1217      C1218   1.414       .  A
C1217      C1222   1.414       .  A
C1218      C1219   1.416       .  A
C1218      C1223   1.456       .  S
C1219      C1220   1.433       .  A
C1219      C1226   1.450       .  S
C1220      C1221   1.435       .  A
C1221      C1222   1.415       .  A
C1221      C1224   1.454       .  S
C1222      C1225   1.456       .  S
C1223      N1230   1.158       .  T
C1224      N1229   1.158       .  T
C1225      N1227   1.158       .  T
C1231      C1232   1.413       .  A
C1231      C1236   1.416       .  A
C1232      C1233   1.415       .  A
C1232      C1237   1.449       .  S
C1233      C1234   1.413       .  A
C1233      C1240   1.450       .  S
C1234      C1235   1.412       .  A
C1235      C1236   1.408       .  A
C1235      C1238   1.453       .  S
C1236      C1239   1.453       .  S
C1237      N1244   1.157       .  T
C1238      N1243   1.157       .  T
C1240      N1242   1.157       .  T
C1245      C1246   1.412       .  A
C1245      C1250   1.410       .  A
C1246      C1247   1.415       .  A
C1246      C1251   1.451       .  S
C1247      C1248   1.417       .  A
C1247      C1254   1.449       .  S
C1248      C1249   1.419       .  A
C1249      C1250   1.406       .  A
C1249      C1252   1.453       .  S
C1250      C1253   1.453       .  S
C1251      N1258   1.157       .  T
C1252      N1257   1.158       .  T
C1253      N1255   1.157       .  T
C1254      N1256   1.157       .  T
C1259      C1260   1.410       .  A
C1259      C1264   1.411       .  A
C1260      C1261   1.406       .  A
C1260      C1265   1.453       .  S
C1261      C1262   1.413       .  A
C1261      C1268   1.451       .  S
C1262      C1263   1.414       .  A
C1263      C1264   1.415       .  A
C1263      C1266   1.449       .  S
C1264      C1267   1.450       .  S
C1265      N1272   1.157       .  T
C1266      N1271   1.157       .  T
C1267      N1269   1.157       .  T
C1273      C1274   1.415       .  A
C1273      C1278   1.416       .  A
C1274      C1275   1.406       .  A
C1274      C1279   1.454       .  S
C1275      C1276   1.414       .  A
C1275      C1282   1.454       .  S
C1276      C1277   1.413       .  A
C1277      C1278   1.416       .  A
C1277      C1280   1.450       .  S
C1278      C1281   1.450       .  S
C1279      N1286   1.157   1_455  T
C1280      N1285   1.157       .  T
C1281      N1283   1.157       .  T
C1287      C1288   1.436       .  A
C1287      C1292   1.437       .  A
C1288      C1289   1.416       .  A
C1288      C1293   1.453   1_455  S
C1289      C1290   1.420       .  A
C1289      C1296   1.458       .  S
C1290      C1291   1.419       .  A
C1291      C1292   1.417       .  A
C1291      C1294   1.457       .  S
C1292      C1295   1.453       .  S
C1293      N2628   1.158       .  T
C1294      N1299   1.158       .  T
C1295      N1297   1.158       .  T
C1296      N1298   1.158       .  T
N1300      C2621   1.158       .  T
C1301      C1302   1.421       .  A
C1301      C1306   1.416       .  A
C1302      C1303   1.412       .  A
C1302      C1307   1.454       .  S
C1303      C1304   1.416       .  A
C1303      C1310   1.453       .  S
C1304      C1305   1.418       .  A
C1305      C1306   1.412       .  A
C1305      C1308   1.451       .  S
C1306      C1309   1.452       .  S
C1308      N1313   1.157       .  T
C1309      N1311   1.158       .  T
C1310      N1312   1.157       .  T
C1315      C1316   1.416       .  A
C1315      C1320   1.414       .  A
C1316      C1317   1.414       .  A
C1316      C1321   1.449       .  S
C1317      C1318   1.415       .  A
C1317      C1324   1.451       .  S
C1318      C1319   1.416       .  A
C1319      C1320   1.411       .  A
C1319      C1322   1.452       .  S
C1320      C1323   1.452       .  S
C1321      N1328   1.157       .  T
C1322      N1327   1.157       .  T
C1323      N1325   1.157       .  T
C1324      N1326   1.157       .  T
C1329      C1330   1.345       .  D
C1329      C1386   1.496       .  S
C1329      C1417   1.502       .  S
C1330      C1475   1.503       .  S
C1330      C1484   1.497       .  S
C1331      C1332   1.347       .  D
C1331      C1388   1.500       .  S
C1331      C1419   1.497       .  S
C1333      C1334   1.347       .  D
C1333      C1366   1.491       .  S
C1334      C1337   1.500       .  S
C1334      C1346   1.504       .  S
C1335      C1336   1.415       .  A
C1335      C1340   1.415       .  A
C1335      C1650   1.495       .  S
C1336      C1337   1.406       .  A
C1336      H1341   1.084       .  S
C1337      C1338   1.403       .  A
C1338      C1339   1.402   1_545  A
C1338      H1342   1.083   1_545  S
C1339      C2017   1.500       .  S
C1339      C1340   1.402   1_565  A
C1340      H1343   1.082   1_545  S
C1344      C1345   1.420       .  A
C1344      C1349   1.413       .  A
C1344      C1633   1.502       .  S
C1345      C1346   1.404       .  A
C1345      H1350   1.081       .  S
C1346      C1347   1.399       .  A
C1347      C1348   1.401   1_545  A
C1347      H1351   1.083   1_545  S
C1348      C2017   1.491       .  S
C1348      C1349   1.403   1_565  A
C1349      H1352   1.083   1_545  S
C1353      C1354   1.343       .  D
C1353      C2003   1.500       .  S
C1353      C2012   1.491       .  S
C1354      C1477   1.490       .  S
C1354      C1486   1.497       .  S
C1355      C1356   1.423       .  A
C1355      C1360   1.421       .  A
C1355      C1619   1.543       .  S
C1356      C1357   1.406       .  A
C1356      H1361   1.079       .  S
C1357      C1358   1.401       .  A
C1358      C1359   1.400       .  A
C1358      H1362   1.083       .  S
C1359      C1373   1.496       .  S
C1359      C1360   1.404       .  A
C1360      H1363   1.077       .  S
C1364      C1365   1.410       .  A
C1364      C1369   1.413       .  A
C1364      C1605   1.491       .  S
C1367      C1368   1.403       .  A
C1367      H1371   1.083       .  S
C1368      C1373   1.499       .  S
C1368      C1369   1.406       .  A
C1369      H1372   1.082       .  S
C1373      C1374   1.346       .  D
C1374      C1377   1.498       .  S
C1374      C1426   1.493       .  S
C1375      C1376   1.410       .  A
C1375      C1380   1.409       .  A
C1375      C1591   1.481       .  S
C1376      C1377   1.404       .  A
C1376      H1381   1.083       .  S
C1377      C1378   1.404       .  A
C1378      C1379   1.405   1_545  A
C1378      H1382   1.083   1_545  S
C1379      C2156   1.496       .  S
C1379      C1380   1.404   1_565  A
C1380      H1383   1.083   1_545  S
C1384      C1385   1.409       .  A
C1384      C1389   1.415       .  A
C1384      C1577   1.485       .  S
C1385      C1386   1.400       .  A
C1385      H1390   1.083       .  S
C1386      C1387   1.403       .  A
C1387      C1388   1.403       .  A
C1387      H1391   1.083       .  S
C1388      C1389   1.405       .  A
C1389      H1392   1.083       .  S
Fe1393     O1409   2.083   1_556  S
Fe1393     O1399   2.067   1_556  S
Fe1393     O1738   2.066       .  S
Fe1393     O1730   2.070       .  S
Fe1393     O1736   1.961       .  S
Fe1394     O1729   2.062       .  S
Fe1394     O1733   2.053       .  S
Fe1394     O1405   2.069       .  S
Fe1394     O1410   2.070       .  S
Fe1394     O1404   1.964       .  S
Fe1395     O1745   2.076       .  S
Fe1395     O1400   2.071       .  S
Fe1395     O1739   2.071       .  S
Fe1395     O1396   2.071       .  S
Fe1395     O1404   1.963       .  S
O1396      C1403   1.269       .  A
O1397     Fe1726   2.062   1_554  S
O1397      C1411   1.269       .  A
O1398     Fe1725   2.070       .  S
O1398      C1403   1.271       .  A
O1399      C1402   1.270       .  A
O1400      C1412   1.269       .  A
O1401     Fe1726   2.053   1_554  S
O1401      C1414   1.265       .  A
C1402      C1636   1.497       .  S
C1402      O1407   1.272       .  A
C1403      C1647   1.491       .  S
O1404     Fe1725   1.961       .  S
O1405      C1408   1.273       .  A
O1406     Fe1725   2.066       .  S
O1406      C1408   1.272       .  A
O1407     Fe1727   2.071   1_554  S
C1408      C1580   1.492       .  S
O1409      C1414   1.271       .  A
O1410      C1412   1.268       .  A
C1411      C1549   1.505       .  S
C1411      O1413   1.272       .  A
C1412      C1594   1.483       .  S
O1413     Fe1727   2.076   1_554  S
C1414      C1563   1.488       .  S
C1415      C1416   1.414       .  A
C1415      C1420   1.410       .  A
C1415      C1566   1.486       .  S
C1416      C1417   1.406       .  A
C1416      H1421   1.083       .  S
C1417      C1418   1.403       .  A
C1418      C1419   1.404       .  A
C1418      H1422   1.083       .  S
C1419      C1420   1.402       .  A
C1420      H1423   1.083       .  S
C1424      C1425   1.421       .  A
C1424      C1429   1.425   1_545  A
C1424      C1552   1.539       .  S
C1425      C1426   1.404       .  A
C1425      H1430   1.082       .  S
C1426      C1427   1.400   1_545  A
C1427      C1428   1.399       .  A
C1427      H1431   1.083       .  S
C1428      C2156   1.500       .  S
C1428      C1429   1.407       .  A
C1429      H1432   1.076       .  S
C1433      C1434   1.414       .  A
C1433      C1438   1.418       .  A
C1433      C1535   1.502       .  S
C1434      C1435   1.403       .  A
C1434      H1439   1.084       .  S
C1435      C1436   1.404       .  A
C1436      C1437   1.402       .  A
C1436      H1440   1.083       .  S
C1437      C1491   1.505       .  S
C1437      C1438   1.405       .  A
C1438      H1441   1.081       .  S
C1442      C1443   1.408       .  A
C1442      C1447   1.409       .  A
C1442      C1521   1.478       .  S
C1443      C1444   1.402       .  A
C1443      H1448   1.084       .  S
C1444      C1445   1.404       .  A
C1445      C1446   1.404       .  A
C1445      H1449   1.083       .  S
C1446      C1491   1.499       .  S
C1446      C1447   1.403       .  A
C1447      H1450   1.083       .  S
Fe1451     O1467   2.053       .  S
Fe1451     O1457   2.053       .  S
Fe1451     O1796   2.064       .  S
Fe1451     O1788   2.053       .  S
Fe1451     O1794   1.970       .  S
Fe1452     O1787   2.055   1_554  S
Fe1452     O1791   2.070   1_554  S
Fe1452     O1463   2.057       .  S
Fe1452     O1468   2.068       .  S
Fe1452     O1462   1.981       .  S
Fe1453     O1803   2.068   1_554  S
Fe1453     O1458   2.058       .  S
Fe1453     O1797   2.060   1_554  S
Fe1453     O1454   2.075       .  S
Fe1453     O1462   1.981       .  S
O1454      C1461   1.270       .  A
O1455     Fe1784   2.055       .  S
O1455      C1469   1.267       .  A
O1456     Fe1783   2.053       .  S
O1456      C1461   1.267       .  A
O1457      C1460   1.265       .  A
O1458      C1470   1.268       .  A
O1459     Fe1784   2.070       .  S
O1459      C1472   1.269       .  A
C1460      C1622   1.517       .  S
C1460      O1465   1.266       .  A
C1461      C1608   1.485       .  S
O1462     Fe1783   1.970       .  S
O1463      C1466   1.267       .  A
O1464     Fe1783   2.064       .  S
O1464      C1466   1.267       .  A
O1465     Fe1785   2.060       .  S
C1466      C1524   1.476       .  S
O1467      C1472   1.267       .  A
O1468      C1470   1.269       .  A
C1469      C1496   1.487       .  S
C1469      O1471   1.269       .  A
C1470      C1510   1.476       .  S
O1471     Fe1785   2.068       .  S
C1472      C1538   1.495       .  S
C1473      C1474   1.416       .  A
C1473      C1478   1.411       .  A
C1473      C1493   1.494       .  S
C1474      C1475   1.406       .  A
C1474      H1479   1.082       .  S
C1475      C1476   1.402       .  A
C1476      C1477   1.402       .  A
C1476      H1480   1.082       .  S
C1477      C1478   1.400       .  A
C1478      H1481   1.084       .  S
C1482      C1483   1.410       .  A
C1482      C1487   1.409       .  A
C1482      C1507   1.478       .  S
C1483      C1484   1.402       .  A
C1483      H1488   1.084       .  S
C1484      C1485   1.403       .  A
C1485      C1486   1.404       .  A
C1485      H1489   1.082       .  S
C1486      C1487   1.403       .  A
C1487      H1490   1.083       .  S
C1491      C1492   1.347       .  D
C1492      C2043   1.496       .  S
C1492      C2092   1.500       .  S
C1493      C1494   1.416       .  A
C1493      C1498   1.418       .  A
C1494      C1495   1.415       .  A
C1494      C1499   1.450       .  S
C1495      C1496   1.414       .  A
C1495      C1502   1.451       .  S
C1496      C1497   1.414       .  A
C1497      C1498   1.406       .  A
C1497      C1500   1.454       .  S
C1498      C1501   1.454       .  S
C1499      N1506   1.158       .  T
C1500      N1837   1.158       .  T
C1501      N1503   1.158       .  T
C1502      N1504   1.157       .  T
N1505      C1832   1.158       .  T
C1507      C1508   1.411       .  A
C1507      C1512   1.410       .  A
C1508      C1509   1.405       .  A
C1508      C1513   1.453       .  S
C1509      C1510   1.412       .  A
C1509      C1516   1.452       .  S
C1510      C1511   1.412       .  A
C1511      C1512   1.412       .  A
C1511      C1514   1.448       .  S
C1512      C1515   1.449       .  S
C1513      N1520   1.157       .  T
C1514      N1519   1.157       .  T
C1515      N1517   1.157       .  T
C1516      N1850   1.157       .  T
N1518      C1848   1.157       .  T
C1521      C1522   1.411       .  A
C1521      C1526   1.411       .  A
C1522      C1523   1.413       .  A
C1522      C1527   1.450       .  S
C1523      C1524   1.412       .  A
C1523      C1530   1.450       .  S
C1524      C1525   1.412       .  A
C1525      C1526   1.405       .  A
C1525      C1528   1.453       .  S
C1526      C1529   1.453       .  S
C1527      N1534   1.157       .  T
C1528      N1865   1.157       .  T
C1529      N1531   1.157       .  T
C1530      N1532   1.157       .  T
N1533      C1860   1.157       .  T
C1535      C1536   1.418       .  A
C1535      C1540   1.417       .  A
C1536      C1537   1.407       .  A
C1536      C1541   1.450       .  S
C1537      C1538   1.416       .  A
C1537      C1544   1.455       .  S
C1538      C1539   1.417       .  A
C1539      C1540   1.417       .  A
C1539      C1542   1.452       .  S
C1540      C1543   1.451       .  S
C1542      N1547   1.158       .  T
C1543      N1545   1.158       .  T
C1544      N1546   1.158       .  T
C1549      C1550   1.414       .  A
C1549      C1554   1.414       .  A
C1550      C1551   1.416       .  A
C1550      C1555   1.456       .  S
C1551      C1552   1.433       .  A
C1551      C1558   1.450   1_545  S
C1552      C1553   1.435       .  A
C1553      C1554   1.415       .  A
C1553      C1556   1.454       .  S
C1554      C1557   1.456       .  S
C1555      N1562   1.158       .  T
C1556      N1561   1.158       .  T
C1557      N1559   1.158       .  T
C1558      N2224   1.158       .  T
N1560      C2222   1.158       .  T
C1563      C1564   1.413       .  A
C1563      C1568   1.416       .  A
C1564      C1565   1.415       .  A
C1564      C1569   1.449       .  S
C1565      C1566   1.413       .  A
C1565      C1572   1.450       .  S
C1566      C1567   1.412       .  A
C1567      C1568   1.408       .  A
C1567      C1570   1.453       .  S
C1568      C1571   1.453       .  S
C1569      N1576   1.157       .  T
C1570      N1575   1.157       .  T
C1571      N1905   1.157       .  T
C1572      N1574   1.157       .  T
N1573      C1903   1.157       .  T
C1577      C1578   1.412       .  A
C1577      C1582   1.410       .  A
C1578      C1579   1.415       .  A
C1578      C1583   1.451       .  S
C1579      C1580   1.417       .  A
C1579      C1586   1.449       .  S
C1580      C1581   1.419       .  A
C1581      C1582   1.406       .  A
C1581      C1584   1.453       .  S
C1582      C1585   1.453       .  S
C1583      N1590   1.157       .  T
C1584      N1589   1.158       .  T
C1585      N1587   1.157       .  T
C1586      N1588   1.157       .  T
C1591      C1592   1.410       .  A
C1591      C1596   1.411       .  A
C1592      C1593   1.406       .  A
C1592      C1597   1.453       .  S
C1593      C1594   1.413       .  A
C1593      C1600   1.451       .  S
C1594      C1595   1.414       .  A
C1595      C1596   1.415       .  A
C1595      C1598   1.449       .  S
C1596      C1599   1.450       .  S
C1597      N1604   1.157       .  T
C1598      N1603   1.157       .  T
C1599      N1601   1.157       .  T
C1600      N1934   1.156       .  T
N1602      C1932   1.156   1_554  T
C1605      C1606   1.415       .  A
C1605      C1610   1.416       .  A
C1606      C1607   1.406       .  A
C1606      C1611   1.454       .  S
C1607      C1608   1.414       .  A
C1607      C1614   1.454       .  S
C1608      C1609   1.413       .  A
C1609      C1610   1.416       .  A
C1609      C1612   1.450       .  S
C1610      C1613   1.450       .  S
C1611      N1618   1.157       .  T
C1612      N1617   1.157       .  T
C1613      N1615   1.157       .  T
C1614      N1948   1.157       .  T
N1616      C1946   1.157       .  T
C1619      C1620   1.436       .  A
C1619      C1624   1.437       .  A
C1620      C1621   1.416       .  A
C1620      C1625   1.453       .  S
C1621      C1622   1.420       .  A
C1621      C1628   1.458       .  S
C1622      C1623   1.419       .  A
C1623      C1624   1.417       .  A
C1623      C1626   1.457       .  S
C1624      C1627   1.452       .  S
C1626      N1631   1.158       .  T
C1627      N1629   1.158       .  T
C1628      N1630   1.158       .  T
C1633      C1634   1.421       .  A
C1633      C1638   1.416       .  A
C1634      C1635   1.412       .  A
C1634      C1639   1.454   1_545  S
C1635      C1636   1.416       .  A
C1635      C1642   1.453       .  S
C1636      C1637   1.418       .  A
C1637      C1638   1.412       .  A
C1637      C1640   1.451       .  S
C1638      C1641   1.452       .  S
C1639      N2310   1.158       .  T
C1640      N1645   1.157       .  T
C1641      N1643   1.158       .  T
C1642      N1644   1.157       .  T
N1646      C2303   1.158       .  T
C1647      C1648   1.416       .  A
C1647      C1652   1.414       .  A
C1648      C1649   1.414       .  A
C1648      C1653   1.449       .  S
C1649      C1650   1.415       .  A
C1649      C1656   1.451       .  S
C1650      C1651   1.416       .  A
C1651      C1652   1.411       .  A
C1651      C1654   1.452       .  S
C1652      C1655   1.452       .  S
C1653      N1660   1.157       .  T
C1654      N1659   1.157       .  T
C1655      N1657   1.157       .  T
C1656      N1658   1.157       .  T
C1661      C1662   1.345       .  D
C1661      C1718   1.496       .  S
C1661      C1749   1.502       .  S
C1662      C1807   1.503       .  S
C1662      C1816   1.497       .  S
C1663      C1664   1.347       .  D
C1663      C1720   1.500       .  S
C1663      C1751   1.497       .  S
C1665      C1666   1.347       .  D
C1665      C1698   1.491       .  S
C1666      C1669   1.500       .  S
C1666      C1678   1.504       .  S
C1667      C1668   1.415       .  A
C1667      C1672   1.415       .  A
C1667      C1982   1.495       .  S
C1668      C1669   1.406       .  A
C1668      H1673   1.084       .  S
C1669      C1670   1.403       .  A
C1670      C1671   1.402   1_545  A
C1670      H1674   1.083   1_545  S
C1671      C2349   1.500       .  S
C1671      C1672   1.402   1_565  A
C1672      H1675   1.082   1_545  S
C1676      C1677   1.420       .  A
C1676      C1681   1.413       .  A
C1676      C1965   1.502       .  S
C1677      C1678   1.404       .  A
C1677      H1682   1.081       .  S
C1678      C1679   1.399       .  A
C1679      C1680   1.401   1_545  A
C1679      H1683   1.083   1_545  S
C1680      C2349   1.491       .  S
C1680      C1681   1.403   1_565  A
C1681      H1684   1.083   1_545  S
C1685      C1686   1.343       .  D
C1685      C2335   1.500       .  S
C1685      C2344   1.491       .  S
C1686      C1809   1.490       .  S
C1686      C1818   1.497       .  S
C1687      C1688   1.423       .  A
C1687      C1692   1.421       .  A
C1687      C1951   1.543       .  S
C1688      C1689   1.406       .  A
C1688      H1693   1.079       .  S
C1689      C1690   1.401       .  A
C1690      C1691   1.400       .  A
C1690      H1694   1.083       .  S
C1691      C1705   1.496       .  S
C1691      C1692   1.404       .  A
C1692      H1695   1.077       .  S
C1696      C1697   1.410       .  A
C1696      C1701   1.413       .  A
C1696      C1937   1.491       .  S
C1699      C1700   1.403       .  A
C1699      H1703   1.083       .  S
C1700      C1705   1.499       .  S
C1700      C1701   1.406       .  A
C1701      H1704   1.082       .  S
C1705      C1706   1.346       .  D
C1706      C1709   1.498       .  S
C1706      C1758   1.493       .  S
C1707      C1708   1.410       .  A
C1707      C1712   1.409       .  A
C1707      C1923   1.481       .  S
C1708      C1709   1.404       .  A
C1708      H1713   1.083       .  S
C1709      C1710   1.404       .  A
C1710      C1711   1.405   1_545  A
C1710      H1714   1.083   1_545  S
C1711      C2488   1.496       .  S
C1711      C1712   1.404   1_565  A
C1712      H1715   1.083   1_545  S
C1716      C1717   1.409       .  A
C1716      C1721   1.415       .  A
C1716      C1909   1.485       .  S
C1717      C1718   1.400       .  A
C1717      H1722   1.083       .  S
C1718      C1719   1.403       .  A
C1719      C1720   1.403       .  A
C1719      H1723   1.083       .  S
C1720      C1721   1.405       .  A
C1721      H1724   1.083       .  S
Fe1725     O1741   2.083       .  S
Fe1725     O1731   2.067       .  S
Fe1726     O1737   2.069       .  S
Fe1726     O1742   2.070       .  S
Fe1726     O1736   1.964       .  S
Fe1727     O1732   2.071       .  S
Fe1727     O1728   2.071       .  S
Fe1727     O1736   1.963       .  S
O1728      C1735   1.269       .  A
O1729      C1743   1.269       .  A
O1730      C1735   1.271       .  A
O1731      C1734   1.270       .  A
O1732      C1744   1.269       .  A
O1733      C1746   1.265       .  A
C1734      C1968   1.497       .  S
C1734      O1739   1.272       .  A
C1735      C1979   1.491       .  S
O1737      C1740   1.273       .  A
O1738      C1740   1.272       .  A
C1740      C1912   1.492       .  S
O1741      C1746   1.271       .  A
O1742      C1744   1.268       .  A
C1743      C1881   1.505       .  S
C1743      O1745   1.272       .  A
C1744      C1926   1.483       .  S
C1746      C1895   1.488       .  S
C1747      C1748   1.414       .  A
C1747      C1752   1.410       .  A
C1747      C1898   1.486       .  S
C1748      C1749   1.406       .  A
C1748      H1753   1.083       .  S
C1749      C1750   1.403       .  A
C1750      C1751   1.404       .  A
C1750      H1754   1.083       .  S
C1751      C1752   1.402       .  A
C1752      H1755   1.083       .  S
C1756      C1757   1.421       .  A
C1756      C1761   1.425   1_545  A
C1756      C1884   1.539       .  S
C1757      C1758   1.404       .  A
C1757      H1762   1.082       .  S
C1758      C1759   1.400   1_545  A
C1759      C1760   1.399       .  A
C1759      H1763   1.083       .  S
C1760      C2488   1.500       .  S
C1760      C1761   1.407       .  A
C1761      H1764   1.076       .  S
C1765      C1766   1.414       .  A
C1765      C1770   1.418       .  A
C1765      C1867   1.502       .  S
C1766      C1767   1.403       .  A
C1766      H1771   1.084       .  S
C1767      C1768   1.404       .  A
C1768      C1769   1.402       .  A
C1768      H1772   1.083       .  S
C1769      C1823   1.505       .  S
C1769      C1770   1.405       .  A
C1770      H1773   1.081       .  S
C1774      C1775   1.408       .  A
C1774      C1779   1.409       .  A
C1774      C1853   1.478       .  S
C1775      C1776   1.402       .  A
C1775      H1780   1.084       .  S
C1776      C1777   1.404       .  A
C1777      C1778   1.404       .  A
C1777      H1781   1.083       .  S
C1778      C1823   1.499       .  S
C1778      C1779   1.403       .  A
C1779      H1782   1.083       .  S
Fe1783     O1799   2.053   1_554  S
Fe1783     O1789   2.053   1_554  S
Fe1784     O1795   2.057       .  S
Fe1784     O1800   2.068       .  S
Fe1784     O1794   1.981       .  S
Fe1785     O1790   2.058       .  S
Fe1785     O1786   2.075       .  S
Fe1785     O1794   1.981       .  S
O1786      C1793   1.270       .  A
O1787      C1801   1.267       .  A
O1788      C1793   1.267       .  A
O1789      C1792   1.265       .  A
O1790      C1802   1.268       .  A
O1791      C1804   1.269       .  A
C1792      C1954   1.517       .  S
C1792      O1797   1.266       .  A
C1793      C1940   1.485       .  S
O1795      C1798   1.267       .  A
O1796      C1798   1.267       .  A
C1798      C1856   1.476       .  S
O1799      C1804   1.267       .  A
O1800      C1802   1.269       .  A
C1801      C1828   1.487       .  S
C1801      O1803   1.269       .  A
C1802      C1842   1.476       .  S
C1804      C1870   1.495       .  S
C1805      C1806   1.416       .  A
C1805      C1810   1.411       .  A
C1805      C1825   1.494       .  S
C1806      C1807   1.406       .  A
C1806      H1811   1.082       .  S
C1807      C1808   1.402       .  A
C1808      C1809   1.402       .  A
C1808      H1812   1.082       .  S
C1809      C1810   1.400       .  A
C1810      H1813   1.084       .  S
C1814      C1815   1.410       .  A
C1814      C1819   1.409       .  A
C1814      C1839   1.478       .  S
C1815      C1816   1.402       .  A
C1815      H1820   1.084       .  S
C1816      C1817   1.403       .  A
C1817      C1818   1.404       .  A
C1817      H1821   1.082       .  S
C1818      C1819   1.403       .  A
C1819      H1822   1.083       .  S
C1823      C1824   1.347       .  D
C1824      C2375   1.496       .  S
C1824      C2424   1.500       .  S
C1825      C1826   1.416       .  A
C1825      C1830   1.418       .  A
C1826      C1827   1.415       .  A
C1826      C1831   1.450       .  S
C1827      C1828   1.414       .  A
C1827      C1834   1.451       .  S
C1828      C1829   1.414       .  A
C1829      C1830   1.406       .  A
C1829      C1832   1.454       .  S
C1830      C1833   1.454       .  S
C1831      N1838   1.158       .  T
C1833      N1835   1.158       .  T
C1834      N1836   1.157       .  T
C1839      C1840   1.411       .  A
C1839      C1844   1.410       .  A
C1840      C1841   1.405       .  A
C1840      C1845   1.453       .  S
C1841      C1842   1.412       .  A
C1841      C1848   1.452       .  S
C1842      C1843   1.412       .  A
C1843      C1844   1.412       .  A
C1843      C1846   1.448       .  S
C1844      C1847   1.449       .  S
C1845      N1852   1.157       .  T
C1846      N1851   1.157       .  T
C1847      N1849   1.157       .  T
C1853      C1854   1.411       .  A
C1853      C1858   1.411       .  A
C1854      C1855   1.413       .  A
C1854      C1859   1.450       .  S
C1855      C1856   1.412       .  A
C1855      C1862   1.450       .  S
C1856      C1857   1.412       .  A
C1857      C1858   1.405       .  A
C1857      C1860   1.453       .  S
C1858      C1861   1.453       .  S
C1859      N1866   1.157       .  T
C1861      N1863   1.157       .  T
C1862      N1864   1.157       .  T
C1867      C1868   1.418       .  A
C1867      C1872   1.417       .  A
C1868      C1869   1.407       .  A
C1868      C1873   1.450       .  S
C1869      C1870   1.416       .  A
C1869      C1876   1.455       .  S
C1870      C1871   1.417       .  A
C1871      C1872   1.417       .  A
C1871      C1874   1.452       .  S
C1872      C1875   1.451       .  S
C1874      N1879   1.158       .  T
C1875      N1877   1.158       .  T
C1876      N1878   1.158       .  T
C1881      C1882   1.414       .  A
C1881      C1886   1.414       .  A
C1882      C1883   1.416       .  A
C1882      C1887   1.456       .  S
C1883      C1884   1.433       .  A
C1883      C1890   1.450   1_545  S
C1884      C1885   1.435       .  A
C1885      C1886   1.415       .  A
C1885      C1888   1.454       .  S
C1886      C1889   1.456       .  S
C1887      N1894   1.158       .  T
C1888      N1893   1.158       .  T
C1889      N1891   1.158       .  T
C1890      N2556   1.158       .  T
N1892      C2554   1.158       .  T
C1895      C1896   1.413       .  A
C1895      C1900   1.416       .  A
C1896      C1897   1.415       .  A
C1896      C1901   1.449       .  S
C1897      C1898   1.413       .  A
C1897      C1904   1.450       .  S
C1898      C1899   1.412       .  A
C1899      C1900   1.408       .  A
C1899      C1902   1.453       .  S
C1900      C1903   1.453       .  S
C1901      N1908   1.157       .  T
C1902      N1907   1.157       .  T
C1904      N1906   1.157       .  T
C1909      C1910   1.412       .  A
C1909      C1914   1.410       .  A
C1910      C1911   1.415       .  A
C1910      C1915   1.451       .  S
C1911      C1912   1.417       .  A
C1911      C1918   1.449       .  S
C1912      C1913   1.419       .  A
C1913      C1914   1.406       .  A
C1913      C1916   1.453       .  S
C1914      C1917   1.453       .  S
C1915      N1922   1.157       .  T
C1916      N1921   1.158       .  T
C1917      N1919   1.157       .  T
C1918      N1920   1.157       .  T
C1923      C1924   1.410       .  A
C1923      C1928   1.411       .  A
C1924      C1925   1.406       .  A
C1924      C1929   1.453       .  S
C1925      C1926   1.413       .  A
C1925      C1932   1.451       .  S
C1926      C1927   1.414       .  A
C1927      C1928   1.415       .  A
C1927      C1930   1.449       .  S
C1928      C1931   1.450       .  S
C1929      N1936   1.157       .  T
C1930      N1935   1.157       .  T
C1931      N1933   1.157       .  T
C1937      C1938   1.415       .  A
C1937      C1942   1.416       .  A
C1938      C1939   1.406       .  A
C1938      C1943   1.454       .  S
C1939      C1940   1.414       .  A
C1939      C1946   1.454       .  S
C1940      C1941   1.413       .  A
C1941      C1942   1.416       .  A
C1941      C1944   1.450       .  S
C1942      C1945   1.450       .  S
C1943      N1950   1.157       .  T
C1944      N1949   1.157       .  T
C1945      N1947   1.157       .  T
C1951      C1952   1.436       .  A
C1951      C1956   1.437       .  A
C1952      C1953   1.416       .  A
C1952      C1957   1.453       .  S
C1953      C1954   1.420       .  A
C1953      C1960   1.458       .  S
C1954      C1955   1.419       .  A
C1955      C1956   1.417       .  A
C1955      C1958   1.457       .  S
C1956      C1959   1.452       .  S
C1958      N1963   1.158       .  T
C1959      N1961   1.158       .  T
C1960      N1962   1.158       .  T
C1965      C1966   1.421       .  A
C1965      C1970   1.416       .  A
C1966      C1967   1.412       .  A
C1966      C1971   1.454   1_545  S
C1967      C1968   1.416       .  A
C1967      C1974   1.453       .  S
C1968      C1969   1.418       .  A
C1969      C1970   1.412       .  A
C1969      C1972   1.451       .  S
C1970      C1973   1.452       .  S
C1971      N2642   1.158       .  T
C1972      N1977   1.157       .  T
C1973      N1975   1.158       .  T
C1974      N1976   1.157       .  T
N1978      C2635   1.158       .  T
C1979      C1980   1.416       .  A
C1979      C1984   1.414       .  A
C1980      C1981   1.414       .  A
C1980      C1985   1.449       .  S
C1981      C1982   1.415       .  A
C1981      C1988   1.451       .  S
C1982      C1983   1.416       .  A
C1983      C1984   1.411       .  A
C1983      C1986   1.452       .  S
C1984      C1987   1.452       .  S
C1985      N1992   1.157       .  T
C1986      N1991   1.157       .  T
C1987      N1989   1.157       .  T
C1988      N1990   1.157       .  T
C1993      C1994   1.345       .  D
C1993      C2050   1.496       .  S
C1993      C2081   1.502       .  S
C1994      C2139   1.503       .  S
C1994      C2148   1.497       .  S
C1995      C1996   1.347       .  D
C1995      C2052   1.500       .  S
C1995      C2083   1.497       .  S
C1997      C1998   1.347       .  D
C1997      C2030   1.491       .  S
C1998      C2001   1.500       .  S
C1998      C2010   1.504       .  S
C1999      C2000   1.415       .  A
C1999      C2004   1.415       .  A
C1999      C2314   1.495       .  S
C2000      C2001   1.406       .  A
C2000      H2005   1.084       .  S
C2001      C2002   1.403       .  A
C2002      C2003   1.402       .  A
C2002      H2006   1.083       .  S
C2003      C2004   1.402       .  A
C2004      H2007   1.082       .  S
C2008      C2009   1.420       .  A
C2008      C2013   1.413       .  A
C2008      C2297   1.503       .  S
C2009      C2010   1.404       .  A
C2009      H2014   1.081       .  S
C2010      C2011   1.399       .  A
C2011      C2012   1.401       .  A
C2011      H2015   1.083       .  S
C2012      C2013   1.403       .  A
C2013      H2016   1.083       .  S
C2017      C2018   1.343       .  D
C2018      C2141   1.490       .  S
C2018      C2150   1.497       .  S
C2019      C2020   1.423       .  A
C2019      C2024   1.421       .  A
C2019      C2283   1.543       .  S
C2020      C2021   1.406       .  A
C2020      H2025   1.079       .  S
C2021      C2022   1.401       .  A
C2022      C2023   1.400       .  A
C2022      H2026   1.083       .  S
C2023      C2037   1.496       .  S
C2023      C2024   1.404       .  A
C2024      H2027   1.077       .  S
C2028      C2029   1.410       .  A
C2028      C2033   1.413       .  A
C2028      C2269   1.491       .  S
C2031      C2032   1.403       .  A
C2031      H2035   1.083       .  S
C2032      C2037   1.499       .  S
C2032      C2033   1.406       .  A
C2033      H2036   1.082       .  S
C2037      C2038   1.346       .  D
C2038      C2041   1.498       .  S
C2038      C2090   1.493       .  S
C2039      C2040   1.410       .  A
C2039      C2044   1.409       .  A
C2039      C2255   1.481       .  S
C2040      C2041   1.404       .  A
C2040      H2045   1.083       .  S
C2041      C2042   1.404       .  A
C2042      C2043   1.405       .  A
C2042      H2046   1.083       .  S
C2043      C2044   1.404       .  A
C2044      H2047   1.083       .  S
C2048      C2049   1.409       .  A
C2048      C2053   1.415       .  A
C2048      C2241   1.485       .  S
C2049      C2050   1.400       .  A
C2049      H2054   1.083       .  S
C2050      C2051   1.403       .  A
C2051      C2052   1.403       .  A
C2051      H2055   1.083       .  S
C2052      C2053   1.405       .  A
C2053      H2056   1.083       .  S
Fe2057     O2073   2.083   1_556  S
Fe2057     O2063   2.068   1_556  S
Fe2057     O2402   2.066       .  S
Fe2057     O2394   2.069       .  S
Fe2057     O2400   1.961       .  S
Fe2058     O2393   2.062       .  S
Fe2058     O2397   2.053       .  S
Fe2058     O2069   2.069       .  S
Fe2058     O2074   2.070       .  S
Fe2058     O2068   1.964       .  S
Fe2059     O2409   2.076       .  S
Fe2059     O2064   2.071       .  S
Fe2059     O2403   2.071       .  S
Fe2059     O2060   2.071       .  S
Fe2059     O2068   1.963       .  S
O2060      C2067   1.269       .  A
O2061     Fe2390   2.062   1_554  S
O2061      C2075   1.269       .  A
O2062     Fe2389   2.069       .  S
O2062      C2067   1.271       .  A
O2063      C2066   1.270       .  A
O2064      C2076   1.269       .  A
O2065     Fe2390   2.053   1_554  S
O2065      C2078   1.265       .  A
C2066      C2300   1.497       .  S
C2066      O2071   1.272       .  A
C2067      C2311   1.491       .  S
O2068     Fe2389   1.961       .  S
O2069      C2072   1.273       .  A
O2070     Fe2389   2.066       .  S
O2070      C2072   1.272       .  A
O2071     Fe2391   2.071   1_554  S
C2072      C2244   1.492       .  S
O2073      C2078   1.271       .  A
O2074      C2076   1.268       .  A
C2075      C2213   1.505       .  S
C2075      O2077   1.271       .  A
C2076      C2258   1.483       .  S
O2077     Fe2391   2.076   1_554  S
C2078      C2227   1.488       .  S
C2079      C2080   1.414       .  A
C2079      C2084   1.410       .  A
C2079      C2230   1.486       .  S
C2080      C2081   1.406       .  A
C2080      H2085   1.083       .  S
C2081      C2082   1.403       .  A
C2082      C2083   1.404       .  A
C2082      H2086   1.083       .  S
C2083      C2084   1.402       .  A
C2084      H2087   1.083       .  S
C2088      C2089   1.421       .  A
C2088      C2093   1.425       .  A
C2088      C2216   1.539       .  S
C2089      C2090   1.404       .  A
C2089      H2094   1.082       .  S
C2090      C2091   1.400       .  A
C2091      C2092   1.399       .  A
C2091      H2095   1.083       .  S
C2092      C2093   1.407       .  A
C2093      H2096   1.076       .  S
C2097      C2098   1.414       .  A
C2097      C2102   1.418       .  A
C2097      C2199   1.502       .  S
C2098      C2099   1.403       .  A
C2098      H2103   1.084       .  S
C2099      C2100   1.404       .  A
C2100      C2101   1.402       .  A
C2100      H2104   1.083       .  S
C2101      C2155   1.505       .  S
C2101      C2102   1.405       .  A
C2102      H2105   1.081       .  S
C2106      C2107   1.408       .  A
C2106      C2111   1.409       .  A
C2106      C2185   1.478       .  S
C2107      C2108   1.402       .  A
C2107      H2112   1.084       .  S
C2108      C2109   1.404       .  A
C2109      C2110   1.404       .  A
C2109      H2113   1.083       .  S
C2110      C2155   1.499       .  S
C2110      C2111   1.403       .  A
C2111      H2114   1.083       .  S
Fe2115     O2131   2.053       .  S
Fe2115     O2121   2.053       .  S
Fe2115     O2460   2.064       .  S
Fe2115     O2452   2.053       .  S
Fe2115     O2458   1.970       .  S
Fe2116     O2451   2.055   1_554  S
Fe2116     O2455   2.070   1_554  S
Fe2116     O2127   2.057       .  S
Fe2116     O2132   2.068       .  S
Fe2116     O2126   1.981       .  S
Fe2117     O2467   2.068   1_554  S
Fe2117     O2122   2.058       .  S
Fe2117     O2461   2.060   1_554  S
Fe2117     O2118   2.075       .  S
Fe2117     O2126   1.981       .  S
O2118      C2125   1.270       .  A
O2119     Fe2448   2.055       .  S
O2119      C2133   1.267       .  A
O2120     Fe2447   2.053       .  S
O2120      C2125   1.267       .  A
O2121      C2124   1.265       .  A
O2122      C2134   1.268       .  A
O2123     Fe2448   2.070       .  S
O2123      C2136   1.269       .  A
C2124      C2286   1.517       .  S
C2124      O2129   1.266       .  A
C2125      C2272   1.485       .  S
O2126     Fe2447   1.970       .  S
O2127      C2130   1.267       .  A
O2128     Fe2447   2.064       .  S
O2128      C2130   1.267       .  A
O2129     Fe2449   2.060       .  S
C2130      C2188   1.476       .  S
O2131      C2136   1.267       .  A
O2132      C2134   1.269       .  A
C2133      C2160   1.487       .  S
C2133      O2135   1.269       .  A
C2134      C2174   1.476       .  S
O2135     Fe2449   2.068       .  S
C2136      C2202   1.495       .  S
C2137      C2138   1.416       .  A
C2137      C2142   1.411       .  A
C2137      C2157   1.494       .  S
C2138      C2139   1.406       .  A
C2138      H2143   1.082       .  S
C2139      C2140   1.402       .  A
C2140      C2141   1.402       .  A
C2140      H2144   1.082       .  S
C2141      C2142   1.400       .  A
C2142      H2145   1.084       .  S
C2146      C2147   1.410       .  A
C2146      C2151   1.409       .  A
C2146      C2171   1.478       .  S
C2147      C2148   1.402       .  A
C2147      H2152   1.084       .  S
C2148      C2149   1.403       .  A
C2149      C2150   1.404       .  A
C2149      H2153   1.082       .  S
C2150      C2151   1.403       .  A
C2151      H2154   1.083       .  S
C2155      C2156   1.347       .  D
C2157      C2158   1.416       .  A
C2157      C2162   1.418       .  A
C2158      C2159   1.415       .  A
C2158      C2163   1.450       .  S
C2159      C2160   1.414       .  A
C2159      C2166   1.451       .  S
C2160      C2161   1.414       .  A
C2161      C2162   1.406       .  A
C2161      C2164   1.454       .  S
C2162      C2165   1.454       .  S
C2163      N2170   1.158       .  T
C2164      N2501   1.158       .  T
C2165      N2167   1.158       .  T
C2166      N2168   1.157       .  T
N2169      C2496   1.158       .  T
C2171      C2172   1.411       .  A
C2171      C2176   1.410       .  A
C2172      C2173   1.405       .  A
C2172      C2177   1.453       .  S
C2173      C2174   1.412       .  A
C2173      C2180   1.452       .  S
C2174      C2175   1.412       .  A
C2175      C2176   1.412       .  A
C2175      C2178   1.448       .  S
C2176      C2179   1.449       .  S
C2177      N2184   1.157       .  T
C2178      N2183   1.157       .  T
C2179      N2181   1.157       .  T
C2180      N2514   1.157       .  T
N2182      C2512   1.157       .  T
C2185      C2186   1.411       .  A
C2185      C2190   1.411       .  A
C2186      C2187   1.413       .  A
C2186      C2191   1.450       .  S
C2187      C2188   1.412       .  A
C2187      C2194   1.450       .  S
C2188      C2189   1.412       .  A
C2189      C2190   1.405       .  A
C2189      C2192   1.453       .  S
C2190      C2193   1.453       .  S
C2191      N2198   1.157       .  T
C2192      N2529   1.157       .  T
C2193      N2195   1.157       .  T
C2194      N2196   1.157       .  T
N2197      C2524   1.157       .  T
C2199      C2200   1.418       .  A
C2199      C2204   1.417       .  A
C2200      C2201   1.407       .  A
C2200      C2205   1.450       .  S
C2201      C2202   1.416       .  A
C2201      C2208   1.455       .  S
C2202      C2203   1.417       .  A
C2203      C2204   1.417       .  A
C2203      C2206   1.452       .  S
C2204      C2207   1.451       .  S
C2206      N2211   1.158       .  T
C2207      N2209   1.158       .  T
C2208      N2210   1.158       .  T
C2213      C2214   1.414       .  A
C2213      C2218   1.414       .  A
C2214      C2215   1.416       .  A
C2214      C2219   1.456       .  S
C2215      C2216   1.433       .  A
C2215      C2222   1.450       .  S
C2216      C2217   1.435       .  A
C2217      C2218   1.415       .  A
C2217      C2220   1.454       .  S
C2218      C2221   1.456       .  S
C2219      N2226   1.158       .  T
C2220      N2225   1.158       .  T
C2221      N2223   1.158       .  T
C2227      C2228   1.413       .  A
C2227      C2232   1.416       .  A
C2228      C2229   1.415       .  A
C2228      C2233   1.449       .  S
C2229      C2230   1.413       .  A
C2229      C2236   1.450       .  S
C2230      C2231   1.412       .  A
C2231      C2232   1.408       .  A
C2231      C2234   1.453       .  S
C2232      C2235   1.453       .  S
C2233      N2240   1.157       .  T
C2234      N2239   1.157       .  T
C2235      N2569   1.157       .  T
C2236      N2238   1.157       .  T
N2237      C2567   1.157       .  T
C2241      C2242   1.412       .  A
C2241      C2246   1.410       .  A
C2242      C2243   1.415       .  A
C2242      C2247   1.451       .  S
C2243      C2244   1.417       .  A
C2243      C2250   1.449       .  S
C2244      C2245   1.419       .  A
C2245      C2246   1.406       .  A
C2245      C2248   1.453       .  S
C2246      C2249   1.453       .  S
C2247      N2254   1.157       .  T
C2248      N2253   1.158       .  T
C2249      N2251   1.157       .  T
C2250      N2252   1.157       .  T
C2255      C2256   1.410       .  A
C2255      C2260   1.411       .  A
C2256      C2257   1.406       .  A
C2256      C2261   1.453       .  S
C2257      C2258   1.413       .  A
C2257      C2264   1.451       .  S
C2258      C2259   1.414       .  A
C2259      C2260   1.415       .  A
C2259      C2262   1.449       .  S
C2260      C2263   1.450       .  S
C2261      N2268   1.157       .  T
C2262      N2267   1.157       .  T
C2263      N2265   1.157       .  T
C2264      N2598   1.156       .  T
N2266      C2596   1.156   1_554  T
C2269      C2270   1.415       .  A
C2269      C2274   1.416       .  A
C2270      C2271   1.406       .  A
C2270      C2275   1.454       .  S
C2271      C2272   1.414       .  A
C2271      C2278   1.454       .  S
C2272      C2273   1.413       .  A
C2273      C2274   1.416       .  A
C2273      C2276   1.450       .  S
C2274      C2277   1.450       .  S
C2275      N2282   1.157       .  T
C2276      N2281   1.157       .  T
C2277      N2279   1.157       .  T
C2278      N2612   1.157       .  T
N2280      C2610   1.157       .  T
C2283      C2284   1.436       .  A
C2283      C2288   1.437       .  A
C2284      C2285   1.416       .  A
C2284      C2289   1.453       .  S
C2285      C2286   1.420       .  A
C2285      C2292   1.458       .  S
C2286      C2287   1.419       .  A
C2287      C2288   1.417       .  A
C2287      C2290   1.457       .  S
C2288      C2291   1.453       .  S
C2290      N2295   1.158       .  T
C2291      N2293   1.158       .  T
C2292      N2294   1.158       .  T
C2297      C2298   1.421       .  A
C2297      C2302   1.416       .  A
C2298      C2299   1.412       .  A
C2298      C2303   1.454       .  S
C2299      C2300   1.416       .  A
C2299      C2306   1.453       .  S
C2300      C2301   1.418       .  A
C2301      C2302   1.412       .  A
C2301      C2304   1.451       .  S
C2302      C2305   1.452       .  S
C2304      N2309   1.157       .  T
C2305      N2307   1.158       .  T
C2306      N2308   1.157       .  T
C2311      C2312   1.416       .  A
C2311      C2316   1.414       .  A
C2312      C2313   1.414       .  A
C2312      C2317   1.449       .  S
C2313      C2314   1.415       .  A
C2313      C2320   1.451       .  S
C2314      C2315   1.416       .  A
C2315      C2316   1.411       .  A
C2315      C2318   1.452       .  S
C2316      C2319   1.452       .  S
C2317      N2324   1.157       .  T
C2318      N2323   1.157       .  T
C2319      N2321   1.157       .  T
C2320      N2322   1.157       .  T
C2325      C2326   1.345       .  D
C2325      C2382   1.496       .  S
C2325      C2413   1.502       .  S
C2326      C2471   1.503       .  S
C2326      C2480   1.497       .  S
C2327      C2328   1.347       .  D
C2327      C2384   1.500       .  S
C2327      C2415   1.497       .  S
C2329      C2330   1.347       .  D
C2329      C2362   1.491       .  S
C2330      C2333   1.500       .  S
C2330      C2342   1.504       .  S
C2331      C2332   1.415       .  A
C2331      C2336   1.415       .  A
C2331      C2646   1.495       .  S
C2332      C2333   1.406       .  A
C2332      H2337   1.084       .  S
C2333      C2334   1.403       .  A
C2334      C2335   1.402       .  A
C2334      H2338   1.083       .  S
C2335      C2336   1.402       .  A
C2336      H2339   1.082       .  S
C2340      C2341   1.420       .  A
C2340      C2345   1.413       .  A
C2340      C2629   1.503       .  S
C2341      C2342   1.404       .  A
C2341      H2346   1.081       .  S
C2342      C2343   1.399       .  A
C2343      C2344   1.401       .  A
C2343      H2347   1.083       .  S
C2344      C2345   1.403       .  A
C2345      H2348   1.083       .  S
C2349      C2350   1.343       .  D
C2350      C2473   1.490       .  S
C2350      C2482   1.497       .  S
C2351      C2352   1.423       .  A
C2351      C2356   1.421       .  A
C2351      C2615   1.543       .  S
C2352      C2353   1.406       .  A
C2352      H2357   1.079       .  S
C2353      C2354   1.401       .  A
C2354      C2355   1.400       .  A
C2354      H2358   1.083       .  S
C2355      C2369   1.496       .  S
C2355      C2356   1.404       .  A
C2356      H2359   1.077       .  S
C2360      C2361   1.410       .  A
C2360      C2365   1.413       .  A
C2360      C2601   1.491       .  S
C2363      C2364   1.403       .  A
C2363      H2367   1.083       .  S
C2364      C2369   1.499       .  S
C2364      C2365   1.406       .  A
C2365      H2368   1.082       .  S
C2369      C2370   1.346       .  D
C2370      C2373   1.498       .  S
C2370      C2422   1.493       .  S
C2371      C2372   1.410       .  A
C2371      C2376   1.409       .  A
C2371      C2587   1.481       .  S
C2372      C2373   1.404       .  A
C2372      H2377   1.083       .  S
C2373      C2374   1.404       .  A
C2374      C2375   1.405       .  A
C2374      H2378   1.083       .  S
C2375      C2376   1.404       .  A
C2376      H2379   1.083       .  S
C2380      C2381   1.409       .  A
C2380      C2385   1.415       .  A
C2380      C2573   1.485       .  S
C2381      C2382   1.400       .  A
C2381      H2386   1.083       .  S
C2382      C2383   1.403       .  A
C2383      C2384   1.403       .  A
C2383      H2387   1.083       .  S
C2384      C2385   1.405       .  A
C2385      H2388   1.083       .  S
Fe2389     O2405   2.083       .  S
Fe2389     O2395   2.067       .  S
Fe2390     O2401   2.069       .  S
Fe2390     O2406   2.070       .  S
Fe2390     O2400   1.964       .  S
Fe2391     O2396   2.071       .  S
Fe2391     O2392   2.071       .  S
Fe2391     O2400   1.963       .  S
O2392      C2399   1.269       .  A
O2393      C2407   1.269       .  A
O2394      C2399   1.271       .  A
O2395      C2398   1.270       .  A
O2396      C2408   1.269       .  A
O2397      C2410   1.265       .  A
C2398      C2632   1.497       .  S
C2398      O2403   1.272       .  A
C2399      C2643   1.491       .  S
O2401      C2404   1.273       .  A
O2402      C2404   1.272       .  A
C2404      C2576   1.492       .  S
O2405      C2410   1.271       .  A
O2406      C2408   1.268       .  A
C2407      C2545   1.505       .  S
C2407      O2409   1.271       .  A
C2408      C2590   1.483       .  S
C2410      C2559   1.488       .  S
C2411      C2412   1.414       .  A
C2411      C2416   1.410       .  A
C2411      C2562   1.486       .  S
C2412      C2413   1.406       .  A
C2412      H2417   1.083       .  S
C2413      C2414   1.403       .  A
C2414      C2415   1.404       .  A
C2414      H2418   1.083       .  S
C2415      C2416   1.402       .  A
C2416      H2419   1.083       .  S
C2420      C2421   1.421       .  A
C2420      C2425   1.425       .  A
C2420      C2548   1.539       .  S
C2421      C2422   1.404       .  A
C2421      H2426   1.082       .  S
C2422      C2423   1.400       .  A
C2423      C2424   1.399       .  A
C2423      H2427   1.083       .  S
C2424      C2425   1.407       .  A
C2425      H2428   1.076       .  S
C2429      C2430   1.414       .  A
C2429      C2434   1.418       .  A
C2429      C2531   1.502       .  S
C2430      C2431   1.403       .  A
C2430      H2435   1.084       .  S
C2431      C2432   1.404       .  A
C2432      C2433   1.402       .  A
C2432      H2436   1.083       .  S
C2433      C2487   1.505       .  S
C2433      C2434   1.405       .  A
C2434      H2437   1.081       .  S
C2438      C2439   1.408       .  A
C2438      C2443   1.409       .  A
C2438      C2517   1.478       .  S
C2439      C2440   1.402       .  A
C2439      H2444   1.084       .  S
C2440      C2441   1.404       .  A
C2441      C2442   1.404       .  A
C2441      H2445   1.083       .  S
C2442      C2487   1.499       .  S
C2442      C2443   1.403       .  A
C2443      H2446   1.083       .  S
Fe2447     O2463   2.053   1_554  S
Fe2447     O2453   2.053   1_554  S
Fe2448     O2459   2.057       .  S
Fe2448     O2464   2.068       .  S
Fe2448     O2458   1.981       .  S
Fe2449     O2454   2.058       .  S
Fe2449     O2450   2.075       .  S
Fe2449     O2458   1.981       .  S
O2450      C2457   1.270       .  A
O2451      C2465   1.267       .  A
O2452      C2457   1.267       .  A
O2453      C2456   1.265       .  A
O2454      C2466   1.268       .  A
O2455      C2468   1.269       .  A
C2456      C2618   1.517       .  S
C2456      O2461   1.266       .  A
C2457      C2604   1.485       .  S
O2459      C2462   1.267       .  A
O2460      C2462   1.267       .  A
C2462      C2520   1.476       .  S
O2463      C2468   1.267       .  A
O2464      C2466   1.269       .  A
C2465      C2492   1.487       .  S
C2465      O2467   1.269       .  A
C2466      C2506   1.476       .  S
C2468      C2534   1.495       .  S
C2469      C2470   1.416       .  A
C2469      C2474   1.411       .  A
C2469      C2489   1.494       .  S
C2470      C2471   1.406       .  A
C2470      H2475   1.082       .  S
C2471      C2472   1.402       .  A
C2472      C2473   1.402       .  A
C2472      H2476   1.082       .  S
C2473      C2474   1.400       .  A
C2474      H2477   1.084       .  S
C2478      C2479   1.410       .  A
C2478      C2483   1.409       .  A
C2478      C2503   1.478       .  S
C2479      C2480   1.402       .  A
C2479      H2484   1.084       .  S
C2480      C2481   1.403       .  A
C2481      C2482   1.404       .  A
C2481      H2485   1.082       .  S
C2482      C2483   1.403       .  A
C2483      H2486   1.083       .  S
C2487      C2488   1.347       .  D
C2489      C2490   1.416       .  A
C2489      C2494   1.418       .  A
C2490      C2491   1.415       .  A
C2490      C2495   1.450       .  S
C2491      C2492   1.414       .  A
C2491      C2498   1.451       .  S
C2492      C2493   1.414       .  A
C2493      C2494   1.406       .  A
C2493      C2496   1.454       .  S
C2494      C2497   1.454       .  S
C2495      N2502   1.158       .  T
C2497      N2499   1.158       .  T
C2498      N2500   1.157       .  T
C2503      C2504   1.411       .  A
C2503      C2508   1.410       .  A
C2504      C2505   1.405       .  A
C2504      C2509   1.453       .  S
C2505      C2506   1.412       .  A
C2505      C2512   1.452       .  S
C2506      C2507   1.412       .  A
C2507      C2508   1.412       .  A
C2507      C2510   1.448       .  S
C2508      C2511   1.449       .  S
C2509      N2516   1.157       .  T
C2510      N2515   1.157       .  T
C2511      N2513   1.157       .  T
C2517      C2518   1.411       .  A
C2517      C2522   1.411       .  A
C2518      C2519   1.413       .  A
C2518      C2523   1.450       .  S
C2519      C2520   1.412       .  A
C2519      C2526   1.450       .  S
C2520      C2521   1.412       .  A
C2521      C2522   1.405       .  A
C2521      C2524   1.453       .  S
C2522      C2525   1.453       .  S
C2523      N2530   1.157       .  T
C2525      N2527   1.157       .  T
C2526      N2528   1.157       .  T
C2531      C2532   1.418       .  A
C2531      C2536   1.417       .  A
C2532      C2533   1.407       .  A
C2532      C2537   1.450       .  S
C2533      C2534   1.416       .  A
C2533      C2540   1.455       .  S
C2534      C2535   1.417       .  A
C2535      C2536   1.417       .  A
C2535      C2538   1.452       .  S
C2536      C2539   1.451       .  S
C2538      N2543   1.158       .  T
C2539      N2541   1.158       .  T
C2540      N2542   1.158       .  T
C2545      C2546   1.414       .  A
C2545      C2550   1.414       .  A
C2546      C2547   1.416       .  A
C2546      C2551   1.456       .  S
C2547      C2548   1.433       .  A
C2547      C2554   1.450       .  S
C2548      C2549   1.435       .  A
C2549      C2550   1.415       .  A
C2549      C2552   1.454       .  S
C2550      C2553   1.456       .  S
C2551      N2558   1.158       .  T
C2552      N2557   1.158       .  T
C2553      N2555   1.158       .  T
C2559      C2560   1.413       .  A
C2559      C2564   1.416       .  A
C2560      C2561   1.415       .  A
C2560      C2565   1.449       .  S
C2561      C2562   1.413       .  A
C2561      C2568   1.450       .  S
C2562      C2563   1.412       .  A
C2563      C2564   1.408       .  A
C2563      C2566   1.453       .  S
C2564      C2567   1.453       .  S
C2565      N2572   1.157       .  T
C2566      N2571   1.157       .  T
C2568      N2570   1.157       .  T
C2573      C2574   1.412       .  A
C2573      C2578   1.410       .  A
C2574      C2575   1.415       .  A
C2574      C2579   1.451       .  S
C2575      C2576   1.417       .  A
C2575      C2582   1.449       .  S
C2576      C2577   1.419       .  A
C2577      C2578   1.406       .  A
C2577      C2580   1.453       .  S
C2578      C2581   1.453       .  S
C2579      N2586   1.157       .  T
C2580      N2585   1.158       .  T
C2581      N2583   1.157       .  T
C2582      N2584   1.157       .  T
C2587      C2588   1.410       .  A
C2587      C2592   1.411       .  A
C2588      C2589   1.406       .  A
C2588      C2593   1.453       .  S
C2589      C2590   1.413       .  A
C2589      C2596   1.451       .  S
C2590      C2591   1.414       .  A
C2591      C2592   1.415       .  A
C2591      C2594   1.449       .  S
C2592      C2595   1.450       .  S
C2593      N2600   1.157       .  T
C2594      N2599   1.157       .  T
C2595      N2597   1.157       .  T
C2601      C2602   1.415       .  A
C2601      C2606   1.416       .  A
C2602      C2603   1.406       .  A
C2602      C2607   1.454       .  S
C2603      C2604   1.414       .  A
C2603      C2610   1.454       .  S
C2604      C2605   1.413       .  A
C2605      C2606   1.416       .  A
C2605      C2608   1.450       .  S
C2606      C2609   1.450       .  S
C2607      N2614   1.157       .  T
C2608      N2613   1.157       .  T
C2609      N2611   1.157       .  T
C2615      C2616   1.436       .  A
C2615      C2620   1.437       .  A
C2616      C2617   1.416       .  A
C2616      C2621   1.453       .  S
C2617      C2618   1.420       .  A
C2617      C2624   1.458       .  S
C2618      C2619   1.419       .  A
C2619      C2620   1.417       .  A
C2619      C2622   1.457       .  S
C2620      C2623   1.453       .  S
C2622      N2627   1.158       .  T
C2623      N2625   1.158       .  T
C2624      N2626   1.158       .  T
C2629      C2630   1.421       .  A
C2629      C2634   1.416       .  A
C2630      C2631   1.412       .  A
C2630      C2635   1.454       .  S
C2631      C2632   1.416       .  A
C2631      C2638   1.453       .  S
C2632      C2633   1.418       .  A
C2633      C2634   1.412       .  A
C2633      C2636   1.451       .  S
C2634      C2637   1.452       .  S
C2636      N2641   1.157       .  T
C2637      N2639   1.158       .  T
C2638      N2640   1.157       .  T
C2643      C2644   1.416       .  A
C2643      C2648   1.414       .  A
C2644      C2645   1.414       .  A
C2644      C2649   1.449       .  S
C2645      C2646   1.415       .  A
C2645      C2652   1.451       .  S
C2646      C2647   1.416       .  A
C2647      C2648   1.411       .  A
C2647      C2650   1.452       .  S
C2648      C2651   1.452       .  S
C2649      N2656   1.157       .  T
C2650      N2655   1.157       .  T
C2651      N2653   1.157       .  T
C2652      N2654   1.157       .  T
