geometry optimzed in LAMMPS
_audit_creation_date              2020-11-30 
_audit_creation_method            'lammps2cif' 
_symmetry_space_group_name_H-M    'P1' 
_symmetry_Int_Tables_number       1 
_symmetry_cell_setting            triclinic 
loop_ 
_symmetry_equiv_pos_as_xyz 
  x,y,z 
_cell_length_a                    47.98660883060157 
_cell_length_b                    47.89105256113452 
_cell_length_c                    31.286189039452204 
_cell_angle_alpha                 90.2049289830527 
_cell_angle_beta                  89.55498563241626 
_cell_angle_gamma                 120.34078554800077 
loop_ 
_atom_site_label 
_atom_site_type_symbol 
_atom_site_fract_x 
_atom_site_fract_y 
_atom_site_fract_z 
_atom_site_charge 
C1          C  0.34230923  0.35849003  0.25148949     0.00850
C2          C  0.36061372  0.34450154  0.25171560     0.00850
C3          C  0.43927360  0.33952273  0.24729557     0.00850
C4          C  0.47166412  0.35358450  0.24808825     0.00850
C5          C  0.47252294  0.06945714  0.24778953     0.00850
C6          C  0.44017526  0.05570412  0.24794362     0.00850
C7          C  0.37261352  0.04015907  0.31933021     0.03420
C8          C  0.40487947  0.05861158  0.30444345    -0.12730
C9          C  0.42071782  0.04299707  0.28807133     0.00920
C10         C  0.40530837  0.00938709  0.29345843    -0.11260
C11         C  0.37170702  0.99261454  0.28880980     0.03410
C12         C  0.35516839  0.00693599  0.30750140    -0.10680
H13         H  0.41683431  0.08477567  0.30326047     0.09010
H14         H  0.41815797  0.99736606  0.28298954     0.06540
H15         H  0.32934869  0.99228018  0.31147548     0.06380
C16         C  0.37276364  0.03968806  0.17737743     0.03420
C17         C  0.35544126  0.00653740  0.18918868    -0.12730
C18         C  0.37207088  0.99245599  0.20743332     0.00920
C19         C  0.40572277  0.00943354  0.20252710    -0.11260
C20         C  0.42080528  0.04299360  0.20830217     0.03410
C21         C  0.40445900  0.05834822  0.19341581    -0.10680
H22         H  0.32946742  0.99214847  0.18673172     0.09010
H23         H  0.41866706  0.99752025  0.21259881     0.06540
H24         H  0.41536063  0.08427568  0.19721460     0.06380
C25         C  0.35923018  0.47346155  0.24808308     0.00850
C26         C  0.34428787  0.44090549  0.24790149     0.00850
C27         C  0.03753266  0.12030279  0.32261633     0.03420
C28         C  0.00628852  0.10716385  0.30533279    -0.12730
C29         C  0.99076511  0.07577265  0.28858525     0.00920
C30         C  0.00479603  0.05680548  0.29667325    -0.11260
C31         C  0.03860529  0.07314704  0.29508863     0.03410
C32         C  0.05474094  0.10398592  0.31399391    -0.10680
H33         H  0.99507932  0.12185583  0.30274068     0.09010
H34         H  0.99184238  0.03179961  0.28640551     0.06540
H35         H  0.08032037  0.11518958  0.32000966     0.06380
C36         C  0.04105711  0.11915366  0.17797370     0.03420
C37         C  0.00760258  0.10440747  0.18785189    -0.12730
C38         C  0.99174912  0.07384083  0.20766433     0.00920
C39         C  0.00796023  0.05638863  0.20636089    -0.11260
C40         C  0.04119981  0.07449168  0.21430224     0.03410
C41         C  0.05822307  0.10570882  0.19700412    -0.10680
H42         H  0.99443794  0.11692850  0.18269957     0.09010
H43         H  0.99495371  0.03148041  0.21706189     0.06540
H44         H  0.08420295  0.12000451  0.20049898     0.06380
C45         C  0.05262878  0.06762313  0.25507905     0.00850
C46         C  0.06876676  0.05141566  0.25498235     0.00850
C47         C  0.11853745  0.03457965  0.32552828     0.03420
C48         C  0.10380514  0.00211799  0.31231948    -0.12730
C49         C  0.07290377  0.98758067  0.29442174     0.00920
C50         C  0.05574474  0.00401110  0.29940847    -0.11260
C51         C  0.07398003  0.03780636  0.29512194     0.03410
C52         C  0.10491067  0.05331786  0.31305700    -0.10680
H53         H  0.11687727  0.98916201  0.31360714     0.09010
H54         H  0.03090028  0.99187978  0.28890640     0.06540
H55         H  0.11887780  0.07948057  0.31493021     0.06380
C56         C  0.37008474  0.28967266  0.31962679     0.03420
C57         C  0.35551970  0.30861483  0.31215516    -0.12730
C58         C  0.37349604  0.33895096  0.29250393     0.00920
C59         C  0.40712791  0.35349245  0.29478193    -0.11260
C60         C  0.41956535  0.33300976  0.28710795     0.03410
C61         C  0.40129028  0.30103677  0.30186676    -0.10680
H62         H  0.33051588  0.30010113  0.31941728     0.09010
H63         H  0.42150411  0.37847534  0.28468395     0.06540
H64         H  0.41057962  0.28476218  0.29754723     0.06380
O65         O  0.32909694  0.16483977  0.05656037    -0.85060
O66         O  0.33432396  0.11174063  0.03453752    -0.82100
C67         C  0.31487162  0.08909843  0.05882237     0.98400
O68         O  0.28488220  0.07640799  0.05345824    -0.82140
O69         O  0.22805712  0.07345851  0.03270939    -0.84780
C70         C  0.22558935  0.09253049  0.05863416     1.02930
O71         O  0.24362522  0.12275069  0.05445262    -0.77540
O72         O  0.29706683  0.18083962  0.03192347    -0.77730
C73         C  0.31773408  0.18352085  0.05882252     1.02880
O74         O  0.33357326  0.18154377  0.46767580    -0.85050
O75         O  0.33362209  0.12585349  0.44634439    -0.82120
C76         C  0.32189670  0.09590640  0.44035724     0.98420
O77         O  0.29936585  0.07538573  0.46396189    -0.82150
O78         O  0.24537623  0.07769452  0.44323136    -0.84750
C79         C  0.22584940  0.08784463  0.44066316     1.02900
O80         O  0.22722173  0.10866151  0.46667594    -0.77570
O81         O  0.28474716  0.16338458  0.44354112    -0.77720
C82         C  0.31488051  0.18236068  0.44010601     1.02860
Cr83       Cr  0.32938966  0.14426525  0.50125432     1.93740
Cr84       Cr  0.26601577  0.07900852  0.49843713     1.93210
Cr85       Cr  0.26486055  0.14235625  0.49911399     1.39100
O86         O  0.28679273  0.12176989  0.49962408    -1.22810
C87         C  0.37205868  0.29042565  0.17875335     0.03420
C88         C  0.35513102  0.30548470  0.19438481    -0.12730
C89         C  0.37243509  0.33693576  0.21126021     0.00920
C90         C  0.40593665  0.35399577  0.20437948    -0.11260
C91         C  0.42129352  0.33571423  0.20678225     0.03410
C92         C  0.40526286  0.30494281  0.18807461    -0.10680
H93         H  0.32898006  0.29216095  0.19578029     0.09010
H94         H  0.41932275  0.37891682  0.21495553     0.06540
H95         H  0.41813169  0.29202587  0.18331718     0.06380
C96         C  0.11942999  0.03605890  0.18105740     0.03420
C97         C  0.10572025  0.05458070  0.19542212    -0.12730
C98         C  0.07480417  0.03860745  0.21424955     0.00920
C99         C  0.05672714  0.00495717  0.20911295    -0.11260
C100        C  0.07403290  0.98879845  0.21375738     0.03410
C101        C  0.10517225  0.00379483  0.19582289    -0.10680
H102        H  0.11910096  0.08074071  0.19362262     0.09010
H103        H  0.03173904  0.99257355  0.21949157     0.06540
H104        H  0.11866443  0.99124429  0.19516610     0.06380
C105        C  0.03883567  0.36928056  0.31956846     0.03420
C106        C  0.05547668  0.40279018  0.31026702    -0.12730
C107        C  0.03855550  0.41676682  0.29269429     0.00920
C108        C  0.00478700  0.39884368  0.29612458    -0.11260
C109        C  0.99043914  0.36548703  0.28870575     0.03410
C110        C  0.00694247  0.35029959  0.30399874    -0.10680
H111        H  0.08120646  0.41777203  0.31492340     0.09010
H112        H  0.99156457  0.41055185  0.28642314     0.06540
H113        H  0.99581067  0.32423434  0.30190592     0.06380
C114        C  0.04049519  0.37228574  0.18008512     0.03420
C115        C  0.05757244  0.40467309  0.19399667    -0.12730
C116        C  0.04030092  0.41838797  0.21174401     0.00920
C117        C  0.00680017  0.40160375  0.20547860    -0.11260
C118        C  0.99141935  0.36778236  0.20862326     0.03410
C119        C  0.00771533  0.35295984  0.19130864    -0.10680
H120        H  0.08373814  0.41804412  0.19366002     0.09010
H121        H  0.99350617  0.41309701  0.21621547     0.06540
H122        H  0.99569067  0.32684376  0.18880589     0.06380
O123        O  0.18241962  0.30031641  0.03119495    -0.85060
O124        O  0.12667079  0.24419013  0.05190416    -0.82100
C125        C  0.09690387  0.22725589  0.06024707     0.98400
O126        O  0.07637645  0.23017937  0.03878698    -0.82140
O127        O  0.08145067  0.28818114  0.05950222    -0.84780
C128        C  0.09175488  0.31809934  0.06058322     1.02930
O129        O  0.11211689  0.33656793  0.03331311    -0.77540
O130        O  0.16627669  0.33302676  0.05466021    -0.77730
C131        C  0.18444950  0.32108495  0.05809364     1.02880
O132        O  0.16560987  0.28831730  0.44185205    -0.85050
O133        O  0.11202953  0.23032747  0.46286926    -0.82120
C134        C  0.08802100  0.22678557  0.44200574     0.98420
O135        O  0.07520038  0.24361175  0.45009842    -0.82150
O136        O  0.07524566  0.29920442  0.47028727    -0.84750
C137        C  0.09349881  0.31959336  0.44259797     1.02900
O138        O  0.12379468  0.33176646  0.44505402    -0.77570
O139        O  0.18224887  0.33684720  0.46641915    -0.77720
C140        C  0.18483729  0.31839484  0.43999572     1.02860
Cr141      Cr  0.14491075  0.26741919  0.49716486     1.93740
Cr142      Cr  0.08050024  0.26698733  0.50441863     1.93210
Cr143      Cr  0.14443190  0.33113547  0.49988105     1.39100
O144        O  0.12318273  0.28825066  0.50042608    -1.22810
C145        C  0.29083135  0.37461424  0.31956001     0.03420
C146        C  0.30526852  0.35625109  0.30865101    -0.12730
C147        C  0.33654147  0.37197224  0.29139103     0.00920
C148        C  0.35441937  0.40581984  0.29481583    -0.11260
C149        C  0.33709134  0.42182941  0.28846423     0.03410
C150        C  0.30570058  0.40706165  0.30565451    -0.10680
H151        H  0.29185191  0.33011498  0.31133199     0.09010
H152        H  0.37941610  0.41800051  0.28443321     0.06540
H153        H  0.29231376  0.41971961  0.30571978     0.06380
C154        C  0.29088528  0.37457656  0.17948684     0.03420
C155        C  0.30344832  0.35563746  0.19614748    -0.12730
C156        C  0.33532827  0.37074384  0.21132896     0.00920
C157        C  0.35463935  0.40413322  0.20423323    -0.11260
C158        C  0.33886081  0.42197528  0.20726486     0.03410
C159        C  0.30839770  0.40823794  0.18817998    -0.10680
H160        H  0.28811506  0.32965661  0.19928857     0.09010
H161        H  0.37957017  0.41585207  0.21436324     0.06540
H162        H  0.29866683  0.42376485  0.18203035     0.06380
C163        C  0.05172972  0.43668210  0.25283755     0.00850
C164        C  0.06725361  0.46917462  0.25366156     0.00850
C165        C  0.26201204  0.36079423  0.34743152     0.00130
C166        C  0.26576773  0.37477701  0.38782387    -0.11740
C167        C  0.24125172  0.36093748  0.41843454     0.02370
C168        C  0.21163366  0.33271094  0.40846537     0.00050
C169        C  0.20771454  0.31876025  0.36771579    -0.11680
C170        C  0.23270262  0.33258360  0.33717520     0.02260
H171        H  0.28863460  0.39598169  0.39612703     0.15240
H172        H  0.18506125  0.29727737  0.35960601     0.15240
C173        C  0.22757826  0.31796969  0.29539211     0.36890
C174        C  0.24813212  0.37528660  0.46058661     0.36790
N175        N  0.22350504  0.30635673  0.26182810    -0.43450
N176        N  0.25379028  0.38673685  0.49434392    -0.43450
C177        C  0.20956319  0.33244696  0.09223730     0.00130
C178        C  0.21335628  0.35695634  0.12064067    -0.11740
C179        C  0.23803723  0.36977248  0.15132175     0.02370
C180        C  0.26075585  0.35908425  0.15293340     0.00050
C181        C  0.25583050  0.33349572  0.12587827    -0.11680
C182        C  0.23040310  0.31969178  0.09677097     0.02260
H183        H  0.19689763  0.36620438  0.11905003     0.15240
H184        H  0.27248387  0.32445982  0.12656068     0.15240
C185        C  0.22658316  0.29224491  0.07250480     0.36890
C186        C  0.23821109  0.39271017  0.18151353     0.36790
N187        N  0.22349884  0.27007648  0.05352311    -0.43450
N188        N  0.23814054  0.41113569  0.20549774    -0.43450
C189        C  0.07895721  0.33196916  0.09178681     0.00130
C190        C  0.07418858  0.32172330  0.13460949    -0.11740
C191        C  0.06257389  0.33520995  0.16475909     0.02370
C192        C  0.05588546  0.35936761  0.15191546     0.00050
C193        C  0.06098927  0.36980425  0.10942088    -0.11680
C194        C  0.07210733  0.35620279  0.07926189     0.02260
H195        H  0.07992000  0.30355267  0.14457194     0.15240
H196        H  0.05514289  0.38793379  0.09945899     0.15240
C197        C  0.07451173  0.36637744  0.03526643     0.36890
C198        C  0.05817626  0.32442192  0.20859569     0.36790
N199        N  0.07624910  0.37449811  0.50007231    -0.43450
N200        N  0.05472721  0.31585905  0.24378049    -0.43450
C201        C  0.07891987  0.33007396  0.40865684     0.00130
C202        C  0.09858000  0.35078185  0.37570016    -0.11740
C203        C  0.08604236  0.36249917  0.34456586     0.02370
C204        C  0.05326380  0.35425552  0.34667159     0.00050
C205        C  0.03341824  0.33242139  0.37831210    -0.11680
C206        C  0.04554349  0.32004956  0.40860735     0.02260
H207        H  0.12390046  0.35786842  0.37410046     0.15240
H208        H  0.00817717  0.32563686  0.38036780     0.15240
C209        C  0.02272372  0.29753707  0.43943174     0.36890
C210        C  0.10708686  0.38177949  0.31010285     0.36790
N211        N  0.00422279  0.27940172  0.46381878    -0.43450
N212        N  0.12402692  0.39717037  0.28247313    -0.43450
C213        C  0.19988887  0.07866516  0.09215379     0.00130
C214        C  0.17400323  0.04702004  0.08617415    -0.11740
C215        C  0.14824313  0.03273898  0.11512210     0.02370
C216        C  0.14799385  0.04991842  0.15186662     0.00050
C217        C  0.17414352  0.08137677  0.15851218    -0.11680
C218        C  0.19994093  0.09583861  0.12913817     0.02260
H219        H  0.17326178  0.03351007  0.05789118     0.15240
H220        H  0.17444162  0.09475855  0.18668132     0.15240
C221        C  0.22618482  0.12805942  0.13817198     0.36890
C222        C  0.12150440  0.00104794  0.10470283     0.36790
N223        N  0.24722139  0.15388584  0.14538856    -0.43450
N224        N  0.10011444  0.47566255  0.09635882    -0.43450
C225        C  0.32947809  0.20972386  0.09147976     0.00130
C226        C  0.34640376  0.20848723  0.12727770    -0.11740
C227        C  0.35909804  0.23349764  0.15766434     0.02370
C228        C  0.35541240  0.26074305  0.15212323     0.00090
C229        C  0.33741753  0.26132398  0.11746792    -0.11680
C230        C  0.32448955  0.23640232  0.08738805     0.02260
H231        H  0.34974249  0.18790580  0.13162893     0.15240
H232        H  0.33450004  0.28215935  0.11284138     0.15240
C233        C  0.30746577  0.24002346  0.05189057     0.36890
C234        C  0.37489947  0.23010450  0.19471127     0.36790
N235        N  0.29384026  0.24310553  0.02360596    -0.43450
N236        N  0.38755519  0.22736783  0.22441222    -0.43450
C237        C  0.35434136  0.25925120  0.34590354     0.00130
C238        C  0.37468498  0.25238585  0.37027096    -0.11740
C239        C  0.36244828  0.22637500  0.39860996     0.02370
C240        C  0.32870973  0.20718572  0.40557567     0.00050
C241        C  0.30812242  0.21278356  0.37989052    -0.11680
C242        C  0.32046135  0.23793591  0.34964731     0.02260
H243        H  0.40068748  0.26788329  0.36809226     0.15240
H244        H  0.28216393  0.19752980  0.38350540     0.15240
C245        C  0.29751141  0.24003956  0.32231398     0.36890
C246        C  0.38552377  0.22003103  0.41934330     0.36790
N247        N  0.27878206  0.24146510  0.30073298    -0.43450
N248        N  0.40411604  0.21491112  0.43548127    -0.43450
C249        C  0.19928077  0.07369700  0.40987075     0.00130
C250        C  0.16807645  0.06298857  0.42561144    -0.11740
C251        C  0.14174448  0.05006413  0.39820694     0.02370
C252        C  0.14649604  0.04814491  0.35408452     0.00050
C253        C  0.17764162  0.05867379  0.33802378    -0.11680
C254        C  0.20416106  0.07149521  0.36574236     0.02260
H255        H  0.16424176  0.06445366  0.45956821     0.15240
H256        H  0.18120035  0.05717803  0.30402476     0.15240
C257        C  0.23616717  0.08365310  0.34820133     0.36890
C258        C  0.10986653  0.03828626  0.41612791     0.36790
N259        N  0.26190839  0.09363556  0.33431863    -0.43450
N260        N  0.08426233  0.02866780  0.43028500    -0.43450
C261        C  0.05815444  0.14886577  0.15087380     0.00130
C262        C  0.04885551  0.17238259  0.15280690    -0.11740
C263        C  0.06162277  0.19845098  0.12419160     0.02370
C264        C  0.08532184  0.20228924  0.09399055     0.00050
C265        C  0.09595789  0.17994508  0.09335489    -0.11680
C266        C  0.08217973  0.15302764  0.12055943     0.02260
H267        H  0.03111920  0.17023761  0.17620061     0.15240
H268        H  0.11370046  0.18244064  0.06964770     0.15240
C269        C  0.09153206  0.12897346  0.11402932     0.36890
C270        C  0.04965706  0.22068330  0.12631886     0.36790
N271        N  0.09904057  0.10973578  0.10867864    -0.43450
N272        N  0.03960529  0.23811108  0.12819635    -0.43450
C273        C  0.05090956  0.15004451  0.34943817     0.00130
C274        C  0.03018284  0.15195591  0.37992644    -0.11740
C275        C  0.04146634  0.17754034  0.40902354     0.02370
C276        C  0.07434758  0.20161542  0.40871493     0.00050
C277        C  0.09498875  0.20051022  0.37759103    -0.11680
C278        C  0.08346395  0.17543678  0.34743312     0.02260
H279        H  0.00513680  0.13273623  0.38204966     0.15240
H280        H  0.12019461  0.21947165  0.37671015     0.15240
C281        C  0.10524216  0.17724344  0.31404315     0.36890
C282        C  0.01920284  0.17746069  0.44044767     0.36790
N283        N  0.12278056  0.17885185  0.28727447    -0.43450
N284        N  0.00131684  0.17736203  0.46556050    -0.43450
C285        C  0.35802955  0.05476063  0.15059980     0.00130
C286        C  0.32429466  0.04192077  0.15096721    -0.11740
C287        C  0.30936701  0.05235770  0.12173850     0.02370
C288        C  0.32839397  0.07728423  0.09227168     0.00050
C289        C  0.36209049  0.09123539  0.09352564    -0.11680
C290        C  0.37689801  0.08006368  0.12126018     0.02260
H291        H  0.30916524  0.02322933  0.17363023     0.15240
H292        H  0.37729669  0.11041473  0.07135306     0.15240
C293        C  0.41142973  0.09419836  0.11630606     0.36890
C294        C  0.27452882  0.03623166  0.12212654     0.36790
N295        N  0.43910701  0.10588904  0.11223943    -0.43450
N296        N  0.24659858  0.02304880  0.12225007    -0.43450
C297        C  0.35874877  0.05605134  0.34681155     0.00130
C298        C  0.37957893  0.07976404  0.37621285    -0.11740
C299        C  0.36836660  0.09420966  0.40525680     0.02370
C300        C  0.33532967  0.08423425  0.40671711     0.00050
C301        C  0.31441838  0.06120860  0.37712886    -0.11680
C302        C  0.32586001  0.04775595  0.34656586     0.02260
H303        H  0.40481010  0.08656441  0.37752501     0.15240
H304        H  0.28903494  0.05400733  0.37758992     0.15240
C305        C  0.30346220  0.02688371  0.31455198     0.36890
C306        C  0.39102205  0.11804680  0.43469603     0.36790
N307        N  0.28526992  0.01021207  0.28901554    -0.43450
N308        N  0.40920887  0.13723203  0.45815260    -0.43450
C309        C  0.34231004  0.35849079  0.75148935     0.00850
C310        C  0.36061427  0.34450202  0.75171548     0.00850
C311        C  0.43927407  0.33952318  0.74729543     0.00850
C312        C  0.47166465  0.35358567  0.74808819     0.00850
C313        C  0.47252195  0.06945629  0.74778992     0.00850
C314        C  0.44017423  0.05570275  0.74794393     0.00850
C315        C  0.37261264  0.04015813  0.81933063     0.03420
C316        C  0.40487854  0.05861049  0.80444365    -0.12730
C317        C  0.42071677  0.04299582  0.78807166     0.00920
C318        C  0.40530724  0.00938586  0.79345908    -0.11260
C319        C  0.37170586  0.99261335  0.78881065     0.03410
C320        C  0.35516739  0.00693498  0.80750219    -0.10680
H321        H  0.41683344  0.08477458  0.80326042     0.09010
H322        H  0.41815675  0.99736471  0.78299034     0.06540
H323        H  0.32934770  0.99227925  0.81147648     0.06380
C324        C  0.37276301  0.03968679  0.67737732     0.03420
C325        C  0.35544024  0.00653636  0.68918945    -0.12730
C326        C  0.37206965  0.99245479  0.70743424     0.00920
C327        C  0.40572153  0.00943195  0.70252785    -0.11260
C328        C  0.42080439  0.04299208  0.70830238     0.03410
C329        C  0.40445852  0.05834689  0.69341520    -0.10680
H330        H  0.32946634  0.99214783  0.68673277     0.09010
H331        H  0.41866561  0.99751850  0.71259978     0.06540
H332        H  0.41536069  0.08427454  0.69721254     0.06380
C333        C  0.35923062  0.47346219  0.74808303     0.00850
C334        C  0.34428846  0.44090614  0.74790139     0.00850
C335        C  0.03753263  0.12030203  0.82261610     0.03420
C336        C  0.00628842  0.10716293  0.80533271    -0.12730
C337        C  0.99076503  0.07577168  0.78858534     0.00920
C338        C  0.00479607  0.05680461  0.79667337    -0.11260
C339        C  0.03860533  0.07314624  0.79508866     0.03410
C340        C  0.05474096  0.10398520  0.81399374    -0.10680
H341        H  0.99507916  0.12185485  0.80274054     0.09010
H342        H  0.99184247  0.03179872  0.78640568     0.06540
H343        H  0.08032041  0.11518896  0.82000936     0.06380
C344        C  0.04105712  0.11915286  0.67797408     0.03420
C345        C  0.00760258  0.10440659  0.68785221    -0.12730
C346        C  0.99174914  0.07383988  0.70766446     0.00920
C347        C  0.00796029  0.05638773  0.70636095    -0.11260
C348        C  0.04119987  0.07449080  0.71430231     0.03410
C349        C  0.05822310  0.10570799  0.69700434    -0.10680
H350        H  0.99443792  0.11692762  0.68270000     0.09010
H351        H  0.99495380  0.03147949  0.71706193     0.06540
H352        H  0.08420298  0.12000370  0.70049921     0.06380
C353        C  0.05262878  0.06762220  0.75507912     0.00850
C354        C  0.06876633  0.05141429  0.75498245     0.00850
C355        C  0.11853709  0.03457856  0.82552848     0.03420
C356        C  0.10380495  0.00211692  0.81231965    -0.12730
C357        C  0.07290358  0.98757944  0.79442191     0.00920
C358        C  0.05574439  0.00400974  0.79940859    -0.11260
C359        C  0.07397955  0.03780500  0.79512209     0.03410
C360        C  0.10491016  0.05331663  0.81305723    -0.10680
H361        H  0.11687722  0.98916108  0.81360729     0.09010
H362        H  0.03089994  0.99187831  0.78890648     0.06540
H363        H  0.11887716  0.07947934  0.81493045     0.06380
C364        C  0.37008505  0.28967301  0.81962644     0.03420
C365        C  0.35552016  0.30861533  0.81215504    -0.12730
C366        C  0.37349656  0.33895145  0.79250384     0.00920
C367        C  0.40712841  0.35349285  0.79478182    -0.11260
C368        C  0.41956575  0.33301010  0.78710775     0.03410
C369        C  0.40129057  0.30103706  0.80186635    -0.10680
H370        H  0.33051639  0.30010177  0.81941730     0.09010
H371        H  0.42150465  0.37847575  0.78468382     0.06540
H372        H  0.41057981  0.28476241  0.79754660     0.06380
O373        O  0.32909695  0.16483947  0.55656107    -0.85060
O374        O  0.33432407  0.11174041  0.53453792    -0.82100
C375        C  0.31487170  0.08909786  0.55882232     0.98400
O376        O  0.28488228  0.07640734  0.55345809    -0.82140
O377        O  0.22805720  0.07345803  0.53270965    -0.84780
C378        C  0.22558937  0.09252987  0.55863462     1.02930
O379        O  0.24362520  0.12275010  0.55445328    -0.77540
O380        O  0.29706674  0.18083924  0.53192433    -0.77730
C381        C  0.31773409  0.18352056  0.55882326     1.02880
O382        O  0.33357328  0.18154392  0.96767506    -0.85050
O383        O  0.33362185  0.12585346  0.94634392    -0.82120
C384        C  0.32189646  0.09590632  0.94035714     0.98420
O385        O  0.29936575  0.07538581  0.96396210    -0.82150
O386        O  0.24537614  0.07769452  0.94323124    -0.84750
C387        C  0.22584936  0.08784466  0.94066281     1.02900
O388        O  0.22722176  0.10866175  0.96667528    -0.77570
O389        O  0.28474720  0.16338470  0.94354031    -0.77720
C390        C  0.31488055  0.18236078  0.94010521     1.02860
Cr391      Cr  0.32938960  0.14426543  0.00125374     1.93740
Cr392      Cr  0.26601568  0.07900880  0.99843709     1.93210
Cr393      Cr  0.26486058  0.14235658  0.99911326     1.39100
O394        O  0.28679268  0.12177016  0.99962360    -1.22810
C395        C  0.37205905  0.29042585  0.67875348     0.03420
C396        C  0.35513142  0.30548496  0.69438488    -0.12730
C397        C  0.37243553  0.33693608  0.71126011     0.00920
C398        C  0.40593708  0.35399607  0.70437927    -0.11260
C399        C  0.42129395  0.33571454  0.70678211     0.03410
C400        C  0.40526324  0.30494304  0.68807466    -0.10680
H401        H  0.32898047  0.29216121  0.69578046     0.09010
H402        H  0.41932320  0.37891713  0.71495526     0.06540
H403        H  0.41813206  0.29202608  0.68331729     0.06380
C404        C  0.11942976  0.03605772  0.68105759     0.03420
C405        C  0.10571988  0.05457943  0.69542223    -0.12730
C406        C  0.07480379  0.03860609  0.71424966     0.00920
C407        C  0.05672688  0.00495580  0.70911309    -0.11260
C408        C  0.07403274  0.98879719  0.71375758     0.03410
C409        C  0.10517211  0.00379367  0.69582312    -0.10680
H410        H  0.11910051  0.08073943  0.69362271     0.09010
H411        H  0.03173877  0.99257211  0.71949167     0.06540
H412        H  0.11866439  0.99124322  0.69516641     0.06380
C413        C  0.03883590  0.36928173  0.81956817     0.03420
C414        C  0.05547701  0.40279135  0.81026675    -0.12730
C415        C  0.03855594  0.41676811  0.79269403     0.00920
C416        C  0.00478743  0.39884509  0.79612431    -0.11260
C417        C  0.99043945  0.36548843  0.78870551     0.03410
C418        C  0.00694267  0.35030088  0.80399849    -0.10680
H419        H  0.08120680  0.41777312  0.81492311     0.09010
H420        H  0.99156510  0.41055335  0.78642281     0.06540
H421        H  0.99581078  0.32423562  0.80190565     0.06380
C422        C  0.04049543  0.37228666  0.68008523     0.03420
C423        C  0.05757280  0.40467403  0.69399667    -0.12730
C424        C  0.04030139  0.41838912  0.71174377     0.00920
C425        C  0.00680065  0.40160504  0.70547828    -0.11260
C426        C  0.99141966  0.36778364  0.70862303     0.03410
C427        C  0.00771552  0.35296094  0.69130860    -0.10680
H428        H  0.08373850  0.41804493  0.69366014     0.09010
H429        H  0.99350675  0.41309843  0.71621505     0.06540
H430        H  0.99569073  0.32684485  0.68880592     0.06380
O431        O  0.18241956  0.30031620  0.53119611    -0.85060
O432        O  0.12667077  0.24418991  0.55190541    -0.82100
C433        C  0.09690387  0.22725572  0.56024846     0.98400
O434        O  0.07637642  0.23017934  0.53878863    -0.82140
O435        O  0.08145081  0.28818127  0.55950371    -0.84780
C436        C  0.09175502  0.31809947  0.56058443     1.02930
O437        O  0.11211701  0.33656793  0.53331421    -0.77540
O438        O  0.16627679  0.33302671  0.55466128    -0.77730
C439        C  0.18444957  0.32108486  0.55809469     1.02880
O440        O  0.16561006  0.28831758  0.94185089    -0.85050
O441        O  0.11202971  0.23032763  0.96286795    -0.82120
C442        C  0.08802120  0.22678567  0.94200432     0.98420
O443        O  0.07520059  0.24361191  0.95009679    -0.82150
O444        O  0.07524566  0.29920451  0.97028582    -0.84750
C445        C  0.09349887  0.31959368  0.94259678     1.02900
O446        O  0.12379474  0.33176680  0.94505290    -0.77570
O447        O  0.18224890  0.33684745  0.96641804    -0.77720
C448        C  0.18483744  0.31839513  0.93999465     1.02860
Cr449      Cr  0.14491085  0.26741940  0.99716362     1.93740
Cr450      Cr  0.08050027  0.26698738  0.00441707     1.93210
Cr451      Cr  0.14443188  0.33113563  0.99987993     1.39100
O452        O  0.12318277  0.28825081  0.00042473    -1.22810
C453        C  0.29083200  0.37461481  0.81955976     0.03420
C454        C  0.30526926  0.35625174  0.80865083    -0.12730
C455        C  0.33654224  0.37197297  0.79139089     0.00920
C456        C  0.35442006  0.40582056  0.79481571    -0.11260
C457        C  0.33709196  0.42183006  0.78846411     0.03410
C458        C  0.30570119  0.40706223  0.80565432    -0.10680
H459        H  0.29185269  0.33011562  0.81133176     0.09010
H460        H  0.37941679  0.41800128  0.78443311     0.06540
H461        H  0.29231431  0.41972013  0.80571955     0.06380
C462        C  0.29088594  0.37457711  0.67948688     0.03420
C463        C  0.30344912  0.35563811  0.69614741    -0.12730
C464        C  0.33532908  0.37074458  0.71132882     0.00920
C465        C  0.35464007  0.40413397  0.70423311    -0.11260
C466        C  0.33886143  0.42197594  0.70726476     0.03410
C467        C  0.30839829  0.40823851  0.68817996    -0.10680
H468        H  0.28811593  0.32965725  0.69928853     0.09010
H469        H  0.37957089  0.41585288  0.71436312     0.06540
H470        H  0.29866732  0.42376533  0.68203038     0.06380
C471        C  0.05173019  0.43668332  0.75283725     0.00850
C472        C  0.06725390  0.46917582  0.75366116     0.00850
C473        C  0.26201259  0.36079471  0.84743107     0.00130
C474        C  0.26576810  0.37477739  0.88782345    -0.11740
C475        C  0.24125196  0.36093780  0.91843391     0.02370
C476        C  0.21163394  0.33271131  0.90846450     0.00050
C477        C  0.20771499  0.31876070  0.86771488    -0.11680
C478        C  0.23270321  0.33258412  0.83717450     0.02260
H479        H  0.28863494  0.39598204  0.89612679     0.15240
H480        H  0.18506173  0.29727785  0.85960492     0.15240
C481        C  0.22757903  0.31797032  0.79539135     0.36890
C482        C  0.24813218  0.37528683  0.96058604     0.36790
N483        N  0.22350596  0.30635746  0.76182730    -0.43450
N484        N  0.25379019  0.38673700  0.99434340    -0.43450
C485        C  0.20956342  0.33244701  0.59223814     0.00130
C486        C  0.21335653  0.35695640  0.62064150    -0.11740
C487        C  0.23803765  0.36977271  0.65132234     0.02370
C488        C  0.26075641  0.35908466  0.65293370     0.00050
C489        C  0.25583104  0.33349613  0.62587857    -0.11680
C490        C  0.23040348  0.31969199  0.59677156     0.02260
H491        H  0.19689776  0.36620431  0.61905106     0.15240
H492        H  0.27248453  0.32446036  0.62656078     0.15240
C493        C  0.22658355  0.29224513  0.57250540     0.36890
C494        C  0.23821153  0.39271038  0.68151419     0.36790
N495        N  0.22349924  0.27007670  0.55352372    -0.43450
N496        N  0.23814102  0.41113588  0.70549846    -0.43450
C497        C  0.07895733  0.33196945  0.59178776     0.00130
C498        C  0.07418846  0.32172367  0.63461047    -0.11740
C499        C  0.06257380  0.33521051  0.66475981     0.02370
C500        C  0.05588564  0.35936830  0.65191588     0.00050
C501        C  0.06098966  0.36980485  0.60942126    -0.11680
C502        C  0.07210768  0.35620318  0.57926252     0.02260
H503        H  0.07991968  0.30355293  0.64457316     0.15240
H504        H  0.05514347  0.38793448  0.59945914     0.15240
C505        C  0.07451227  0.36637774  0.53526699     0.36890
C506        C  0.05817590  0.32442254  0.70859645     0.36790
N507        N  0.07624842  0.37449788  0.00007182    -0.43450
N508        N  0.05472664  0.31585971  0.74378129    -0.43450
C509        C  0.07891998  0.33007454  0.90865590     0.00130
C510        C  0.09858011  0.35078251  0.87569928    -0.11740
C511        C  0.08604252  0.36250006  0.84456522     0.02370
C512        C  0.05326399  0.35425655  0.84667112     0.00050
C513        C  0.03341844  0.33242237  0.87831159    -0.11680
C514        C  0.04554364  0.32005033  0.90860660     0.02260
H515        H  0.12390054  0.35786898  0.87409945     0.15240
H516        H  0.00817740  0.32563796  0.88036743     0.15240
C517        C  0.02272387  0.29753783  0.93943100     0.36890
C518        C  0.10708701  0.38178046  0.81010224     0.36790
N519        N  0.00422294  0.27940249  0.96381803    -0.43450
N520        N  0.12402707  0.39717140  0.78247256    -0.43450
C521        C  0.19988886  0.07866436  0.59215424     0.00130
C522        C  0.17400337  0.04701916  0.58617459    -0.11740
C523        C  0.14824321  0.03273797  0.61512247     0.02370
C524        C  0.14799371  0.04991736  0.65186692     0.00050
C525        C  0.17414326  0.08137578  0.65851252    -0.11680
C526        C  0.19994073  0.09583773  0.62913860     0.02260
H527        H  0.17326207  0.03350922  0.55789166     0.15240
H528        H  0.17444122  0.09475752  0.68668163     0.15240
C529        C  0.22618448  0.12805861  0.63817249     0.36890
C530        C  0.12150464  0.00104684  0.60470318     0.36790
N531        N  0.24722094  0.15388508  0.64538913    -0.43450
N532        N  0.10011452  0.47566330  0.59635836    -0.43450
C533        C  0.32947822  0.20972370  0.59148036     0.00130
C534        C  0.34640399  0.20848720  0.62727828    -0.11740
C535        C  0.35909836  0.23349774  0.65766477     0.02370
C536        C  0.35541271  0.26074314  0.65212352     0.00090
C537        C  0.33741777  0.26132395  0.61746822    -0.11680
C538        C  0.32448972  0.23640217  0.58738850     0.02260
H539        H  0.34974272  0.18790578  0.63162962     0.15240
H540        H  0.33450029  0.28215931  0.61284155     0.15240
C541        C  0.30746591  0.24002322  0.55189099     0.36890
C542        C  0.37489989  0.23010473  0.69471168     0.36790
N543        N  0.29384038  0.24310522  0.52360634    -0.43450
N544        N  0.38755568  0.22736816  0.72441263    -0.43450
C545        C  0.35434155  0.25925143  0.84590298     0.00130
C546        C  0.37468510  0.25238571  0.87026997    -0.11740
C547        C  0.36244830  0.22637476  0.89860882     0.02370
C548        C  0.32870978  0.20718579  0.90557484     0.00050
C549        C  0.30812252  0.21278396  0.87989009    -0.11680
C550        C  0.32046150  0.23793639  0.84964700     0.02260
H551        H  0.40068761  0.26788293  0.86809110     0.15240
H552        H  0.28216402  0.19753043  0.88350523     0.15240
C553        C  0.29751154  0.24004036  0.82231410     0.36890
C554        C  0.38552366  0.22003035  0.91934166     0.36790
N555        N  0.27878216  0.24146617  0.80073346    -0.43450
N556        N  0.40411581  0.21491006  0.93547923    -0.43450
C557        C  0.19928065  0.07369678  0.90987055     0.00130
C558        C  0.16807637  0.06298844  0.92561132    -0.11740
C559        C  0.14174432  0.05006368  0.89820697     0.02370
C560        C  0.14649575  0.04814403  0.85408461     0.00050
C561        C  0.17764128  0.05867279  0.83802379    -0.11680
C562        C  0.20416081  0.07149455  0.86574222     0.02260
H563        H  0.16424178  0.06445386  0.95956805     0.15240
H564        H  0.18119991  0.05717671  0.80402482     0.15240
C565        C  0.23616687  0.08365230  0.84820111     0.36890
C566        C  0.10986641  0.03828592  0.91612803     0.36790
N567        N  0.26190806  0.09363467  0.83431831    -0.43450
N568        N  0.08426225  0.02866754  0.93028521    -0.43450
C569        C  0.05815444  0.14886511  0.65087445     0.00130
C570        C  0.04885559  0.17238198  0.65280801    -0.11740
C571        C  0.06162289  0.19845056  0.62419299     0.02370
C572        C  0.08532187  0.20228891  0.59399174     0.00050
C573        C  0.09595783  0.17994469  0.59335563    -0.11680
C574        C  0.08217967  0.15302710  0.62055992     0.02260
H575        H  0.03111933  0.17023691  0.67620186     0.15240
H576        H  0.11370034  0.18244033  0.56964828     0.15240
C577        C  0.09153192  0.12897290  0.61402939     0.36890
C578        C  0.04965734  0.22068300  0.62632076     0.36790
N579        N  0.09904036  0.10973520  0.60867840    -0.43450
N580        N  0.03960575  0.23811092  0.62819865    -0.43450
C581        C  0.05090959  0.15004394  0.84943763     0.00130
C582        C  0.03018295  0.15195550  0.87992590    -0.11740
C583        C  0.04146650  0.17754015  0.90902267     0.02370
C584        C  0.07434771  0.20161531  0.90871374     0.00050
C585        C  0.09498880  0.20050994  0.87758987    -0.11680
C586        C  0.08346395  0.17543626  0.84743228     0.02260
H587        H  0.00513693  0.13273579  0.88204937     0.15240
H588        H  0.12019464  0.21947140  0.87670875     0.15240
C589        C  0.10524207  0.17724274  0.81404228     0.36890
C590        C  0.01920309  0.17746065  0.94044682     0.36790
N591        N  0.12278039  0.17885102  0.78727358    -0.43450
N592        N  0.00131716  0.17736210  0.96555968    -0.43450
C593        C  0.35802925  0.05475926  0.65059908     0.00130
C594        C  0.32429466  0.04192112  0.65096847    -0.11740
C595        C  0.30936712  0.05235835  0.62173998     0.02370
C596        C  0.32839403  0.07728328  0.59227114     0.00050
C597        C  0.36209039  0.09123246  0.59352270    -0.11680
C598        C  0.37689768  0.08006052  0.62125729     0.02260
H599        H  0.30916544  0.02323091  0.67363306     0.15240
H600        H  0.37729653  0.11041036  0.57134833     0.15240
C601        C  0.41142898  0.09419292  0.61630118     0.36890
C602        C  0.27452906  0.03623453  0.62213072     0.36790
N603        N  0.43910594  0.10588168  0.61223302    -0.43450
N604        N  0.24659890  0.02305347  0.62225645    -0.43450
C605        C  0.35874806  0.05605062  0.84681182     0.00130
C606        C  0.37957835  0.07976344  0.87621289    -0.11740
C607        C  0.36836618  0.09420928  0.90525671     0.02370
C608        C  0.33532928  0.08423396  0.90671711     0.00050
C609        C  0.31441785  0.06120820  0.87712908    -0.11680
C610        C  0.32585933  0.04775533  0.84656620     0.02260
H611        H  0.40480950  0.08656374  0.87752499     0.15240
H612        H  0.28903443  0.05400700  0.87759023     0.15240
C613        C  0.30346140  0.02688297  0.81455252     0.36890
C614        C  0.39102175  0.11804654  0.93469572     0.36790
N615        N  0.28526902  0.01021123  0.78901623    -0.43450
N616        N  0.40920866  0.13723187  0.95815212    -0.43450
C617        C  0.34231829  0.85848748  0.25148382     0.00850
C618        C  0.36063616  0.84451397  0.25171255     0.00850
C619        C  0.43928469  0.83951542  0.24729323     0.00850
C620        C  0.47167605  0.85358640  0.24808721     0.00850
C621        C  0.47249877  0.56945747  0.24778625     0.00850
C622        C  0.44015129  0.55570542  0.24794428     0.00850
C623        C  0.37260079  0.54018369  0.31932034     0.03420
C624        C  0.40487224  0.55862656  0.30445553    -0.12730
C625        C  0.42069753  0.54300173  0.28807580     0.00920
C626        C  0.40527460  0.50939020  0.29345804    -0.11260
C627        C  0.37167347  0.49262934  0.28880089     0.03410
C628        C  0.35514205  0.50696481  0.30747621    -0.10680
H629        H  0.41684081  0.58479214  0.30329451     0.09010
H630        H  0.41811724  0.49736161  0.28299085     0.06540
H631        H  0.32931788  0.49232675  0.31142822     0.06380
C632        C  0.37273928  0.53969975  0.17738044     0.03420
C633        C  0.35541379  0.50654900  0.18918887    -0.12730
C634        C  0.37204022  0.49246357  0.20742997     0.00920
C635        C  0.40569237  0.50943803  0.20252542    -0.11260
C636        C  0.42077824  0.54299793  0.20830396     0.03410
C637        C  0.40443523  0.55835671  0.19341899    -0.10680
H638        H  0.32943985  0.49216226  0.18673064     0.09010
H639        H  0.41863382  0.49752170  0.21259692     0.06540
H640        H  0.41534038  0.58428465  0.19721638     0.06380
C641        C  0.35926094  0.97345314  0.24808690     0.00850
C642        C  0.34428469  0.94089537  0.24790192     0.00850
C643        C  0.03751428  0.62029869  0.32260878     0.03420
C644        C  0.00627024  0.60716338  0.30532627    -0.12730
C645        C  0.99074266  0.57577163  0.28858049     0.00920
C646        C  0.00476944  0.55680086  0.29666883    -0.11260
C647        C  0.03857838  0.57313825  0.29508161     0.03410
C648        C  0.05471847  0.60397770  0.31398537    -0.10680
H649        H  0.99506406  0.62185814  0.30273435     0.09010
H650        H  0.99181237  0.53179464  0.28640288     0.06540
H651        H  0.08029783  0.61517839  0.31999955     0.06380
C652        C  0.04103292  0.61914298  0.17796567     0.03420
C653        C  0.00757913  0.60440184  0.18784588    -0.12730
C654        C  0.99172228  0.57383583  0.20765985     0.00920
C655        C  0.00792884  0.55637910  0.20635624    -0.11260
C656        C  0.04116909  0.57447813  0.21429473     0.03410
C657        C  0.05819555  0.60569426  0.19699479    -0.10680
H658        H  0.99441787  0.61692641  0.18269422     0.09010
H659        H  0.99491957  0.53147140  0.21705910     0.06540
H660        H  0.08417576  0.61998678  0.20048822     0.06380
C661        C  0.05259806  0.56760992  0.25507146     0.00850
C662        C  0.06873655  0.55140311  0.25497536     0.00850
C663        C  0.11851306  0.53458048  0.32552631     0.03420
C664        C  0.10378680  0.50211907  0.31231792    -0.12730
C665        C  0.07288544  0.48757620  0.29441928     0.00920
C666        C  0.05572098  0.50400125  0.29940375    -0.11260
C667        C  0.07395129  0.53779662  0.29511620     0.03410
C668        C  0.10488108  0.55331340  0.31305312    -0.10680
H669        H  0.11686338  0.48916761  0.31360663     0.09010
H670        H  0.03087661  0.49186578  0.28890096     0.06540
H671        H  0.11884410  0.57947633  0.31492538     0.06380
C672        C  0.37008899  0.78967865  0.31962517     0.03420
C673        C  0.35553463  0.80863121  0.31215885    -0.12730
C674        C  0.37351707  0.83896450  0.29250308     0.00920
C675        C  0.40714808  0.85349673  0.29477891    -0.11260
C676        C  0.41957585  0.83300580  0.28710437     0.03410
C677        C  0.40129184  0.80103288  0.30186103    -0.10680
H678        H  0.33053373  0.80012740  0.31942676     0.09010
H679        H  0.42152997  0.87847878  0.28467974     0.06540
H680        H  0.41057246  0.78475139  0.29753719     0.06380
O681        O  0.32907502  0.66483882  0.05655958    -0.85060
O682        O  0.33430289  0.61174303  0.03452378    -0.82100
C683        C  0.31485050  0.58910095  0.05880834     0.98400
O684        O  0.28486109  0.57640969  0.05344286    -0.82140
O685        O  0.22803597  0.57346256  0.03270127    -0.84780
C686        C  0.22556820  0.59253290  0.05862934     1.02930
O687        O  0.24360436  0.62275340  0.05445120    -0.77540
O688        O  0.29704732  0.68084355  0.03192837    -0.77730
C689        C  0.31771428  0.68352145  0.05882580     1.02880
O690        O  0.33355271  0.68155254  0.46767784    -0.85050
O691        O  0.33360197  0.62586462  0.44633418    -0.82120
C692        C  0.32187612  0.59591807  0.44034229     0.98420
O693        O  0.29934381  0.57539477  0.46394278    -0.82150
O694        O  0.24535418  0.57770564  0.44322081    -0.84750
C695        C  0.22582796  0.58785670  0.44065624     1.02900
O696        O  0.22720113  0.60867213  0.46667232    -0.77570
O697        O  0.28472752  0.66339508  0.44354107    -0.77720
C698        C  0.31486121  0.68236918  0.44010602     1.02860
Cr699      Cr  0.32936870  0.64427088  0.50124793     1.93740
Cr700      Cr  0.26599429  0.57901509  0.49842408     1.93210
Cr701      Cr  0.26484049  0.64236367  0.49911260     1.39100
O702        O  0.28677174  0.62177623  0.49961690    -1.22810
C703        C  0.37206412  0.79042624  0.17875441     0.03420
C704        C  0.35514375  0.80549314  0.19438422    -0.12730
C705        C  0.37245462  0.83694395  0.21125820     0.00920
C706        C  0.40595587  0.85399692  0.20437607    -0.11260
C707        C  0.42130544  0.83570856  0.20677993     0.03410
C708        C  0.40526778  0.80493615  0.18807531    -0.10680
H709        H  0.32899276  0.79217514  0.19578045     0.09010
H710        H  0.41934708  0.87891805  0.21495078     0.06540
H711        H  0.41813107  0.79201357  0.18331901     0.06380
C712        C  0.11940699  0.53605457  0.18105150     0.03420
C713        C  0.10569291  0.55457287  0.19541507    -0.12730
C714        C  0.07477683  0.53859611  0.21424319     0.00920
C715        C  0.05670438  0.50494550  0.20910839    -0.11260
C716        C  0.07401484  0.48879179  0.21375476     0.03410
C717        C  0.10515394  0.50379153  0.19581934    -0.10680
H718        H  0.11907043  0.58073286  0.19361425     0.09010
H719        H  0.03171620  0.49255868  0.21948680     0.06540
H720        H  0.11864953  0.49124447  0.19516366     0.06380
C721        C  0.03884635  0.86928567  0.31956897     0.03420
C722        C  0.05548676  0.90279518  0.31026735    -0.12730
C723        C  0.03856506  0.91677096  0.29269374     0.00920
C724        C  0.00479652  0.89884702  0.29612322    -0.11260
C725        C  0.99044953  0.86549040  0.28870490     0.03410
C726        C  0.00695341  0.85030392  0.30399891    -0.10680
H727        H  0.08121647  0.91777747  0.31492403     0.09010
H728        H  0.99157355  0.91055452  0.28642144     0.06540
H729        H  0.99582228  0.82423872  0.30190646     0.06380
C730        C  0.04050751  0.87229182  0.18008393     0.03420
C731        C  0.05758372  0.90467937  0.19399520    -0.12730
C732        C  0.04031129  0.91839318  0.21174321     0.00920
C733        C  0.00681046  0.90160765  0.20547811    -0.11260
C734        C  0.99143081  0.86778627  0.20862219     0.03410
C735        C  0.00772775  0.85296499  0.19130714    -0.10680
H736        H  0.08374941  0.91805112  0.19365870     0.09010
H737        H  0.99351555  0.91309994  0.21621497     0.06540
H738        H  0.99570398  0.82684895  0.18880443     0.06380
O739        O  0.18241710  0.80029880  0.03119233    -0.85060
O740        O  0.12666331  0.74417800  0.05190199    -0.82100
C741        C  0.09689601  0.72724709  0.06024423     0.98400
O742        O  0.07637093  0.73017422  0.03878399    -0.82140
O743        O  0.08145446  0.78817955  0.05950404    -0.84780
C744        C  0.09176317  0.81809865  0.06058667     1.02930
O745        O  0.11212752  0.83656630  0.03331809    -0.77540
O746        O  0.16628327  0.83301557  0.05466039    -0.77730
C747        C  0.18445356  0.82107054  0.05809012     1.02880
O748        O  0.16560595  0.78830442  0.44184679    -0.85050
O749        O  0.11202077  0.73031842  0.46286382    -0.82120
C750        C  0.08801433  0.72678125  0.44199977     0.98420
O751        O  0.07519792  0.74361127  0.45009309    -0.82150
O752        O  0.07525179  0.79920764  0.47028797    -0.84750
C753        C  0.09350614  0.81959554  0.44259882     1.02900
O754        O  0.12380155  0.83176526  0.44505435    -0.77570
O755        O  0.18225108  0.83683515  0.46641518    -0.77720
C756        C  0.18483576  0.81838149  0.43999014     1.02860
Cr757      Cr  0.14490573  0.76740722  0.49715961     1.93740
Cr758      Cr  0.08050085  0.76698601  0.50441533     1.93210
Cr759      Cr  0.14443784  0.83112911  0.49988000     1.39100
O760        O  0.12318326  0.78824423  0.50042300    -1.22810
C761        C  0.29082340  0.87459615  0.31954417     0.03420
C762        C  0.30526508  0.85623695  0.30863615    -0.12730
C763        C  0.33654085  0.87196323  0.29138428     0.00920
C764        C  0.35441506  0.90581042  0.29481532    -0.11260
C765        C  0.33708440  0.92181703  0.28846210     0.03410
C766        C  0.30569105  0.90704431  0.30564325    -0.10680
H767        H  0.29185105  0.83010064  0.31131390     0.09010
H768        H  0.37941273  0.91799437  0.28443604     0.06540
H769        H  0.29230227  0.91970028  0.30570777     0.06380
C770        C  0.29088377  0.87455740  0.17948880     0.03420
C771        C  0.30345672  0.85562423  0.19613700    -0.12730
C772        C  0.33533569  0.87073820  0.21132178     0.00920
C773        C  0.35463895  0.90412907  0.20422960    -0.11260
C774        C  0.33885220  0.92196331  0.20726671     0.03410
C775        C  0.30838439  0.90821725  0.18819227    -0.10680
H776        H  0.28813110  0.82964146  0.19926558     0.09010
H777        H  0.37956989  0.91585311  0.21436050     0.06540
H778        H  0.29863944  0.92373440  0.18205693     0.06380
C779        C  0.05173977  0.93668666  0.25283747     0.00850
C780        C  0.06726830  0.96917936  0.25366295     0.00850
C781        C  0.26200539  0.86077493  0.34741796     0.00130
C782        C  0.26576149  0.87476281  0.38780675    -0.11740
C783        C  0.24124738  0.86092567  0.41841979     0.02370
C784        C  0.21163039  0.83269569  0.40845693     0.00050
C785        C  0.20771069  0.81873978  0.36771060    -0.11680
C786        C  0.23269713  0.83256118  0.33716740     0.02260
H787        H  0.28862743  0.89597043  0.39610538     0.15240
H788        H  0.18505814  0.79725446  0.35960523     0.15240
C789        C  0.22757181  0.81794270  0.29538728     0.36890
C790        C  0.24812895  0.87528216  0.46056747     0.36790
N791        N  0.22349766  0.80632612  0.26182557    -0.43450
N792        N  0.25378818  0.88673875  0.49432103    -0.43450
C793        C  0.20957055  0.83243103  0.09222976     0.00130
C794        C  0.21333854  0.85691083  0.12067155    -0.11740
C795        C  0.23801805  0.86972363  0.15135487     0.02370
C796        C  0.26075768  0.85906195  0.15293237     0.00050
C797        C  0.25585927  0.83350243  0.12583898    -0.11680
C798        C  0.23043654  0.81970251  0.09672458     0.02260
H799        H  0.19686086  0.86613717  0.11911033     0.15240
H800        H  0.27253160  0.82448890  0.12649686     0.15240
C801        C  0.22665300  0.79229123  0.07240574     0.36890
C802        C  0.23817105  0.89262908  0.18158557     0.36790
N803        N  0.22359890  0.77015144  0.05338120    -0.43450
N804        N  0.23808467  0.91102806  0.20560318    -0.43450
C805        C  0.07896768  0.83197100  0.09178966     0.00130
C806        C  0.07419758  0.82172535  0.13461242    -0.11740
C807        C  0.06258425  0.83521396  0.16476100     0.02370
C808        C  0.05589881  0.85937354  0.15191632     0.00050
C809        C  0.06100456  0.86981027  0.10942177    -0.11680
C810        C  0.07212109  0.85620673  0.07926373     0.02260
H811        H  0.07992652  0.80355309  0.14457564     0.15240
H812        H  0.05516023  0.88794108  0.09945891     0.15240
C813        C  0.07452677  0.86638116  0.03526797     0.36890
C814        C  0.05818458  0.82442569  0.20859763     0.36790
N815        N  0.07626278  0.87450079  0.50007213    -0.43450
N816        N  0.05473389  0.81586266  0.24378248    -0.43450
C817        C  0.07892879  0.83007832  0.40865840     0.00130
C818        C  0.09858976  0.85078664  0.37570261    -0.11740
C819        C  0.08605291  0.86250472  0.34456821     0.02370
C820        C  0.05327439  0.85426127  0.34667310     0.00050
C821        C  0.03342825  0.83242728  0.37831322    -0.11680
C822        C  0.04555259  0.82005472  0.40860837     0.02260
H823        H  0.12391012  0.85787274  0.37410353     0.15240
H824        H  0.00818726  0.82564315  0.38036840     0.15240
C825        C  0.02273185  0.79754188  0.43943168     0.36890
C826        C  0.10709800  0.88178536  0.31010585     0.36790
N827        N  0.00423018  0.77940629  0.46381784    -0.43450
N828        N  0.12403853  0.89717647  0.28247663    -0.43450
C829        C  0.19986735  0.57866566  0.09214904     0.00130
C830        C  0.17398335  0.54701956  0.08616966    -0.11740
C831        C  0.14822272  0.53273725  0.11511695     0.02370
C832        C  0.14797096  0.54991644  0.15186043     0.00050
C833        C  0.17411886  0.58137575  0.15850578    -0.11680
C834        C  0.19991705  0.59583865  0.12913285     0.02260
H835        H  0.17324360  0.53350965  0.05788748     0.15240
H836        H  0.17441513  0.59475729  0.18667423     0.15240
C837        C  0.22615940  0.62806009  0.13816745     0.36890
C838        C  0.12148600  0.50104485  0.10469832     0.36790
N839        N  0.24719480  0.65388697  0.14538482    -0.43450
N840        N  0.10013123  0.97566675  0.09636274    -0.43450
C841        C  0.32946217  0.70972330  0.09148469     0.00130
C842        C  0.34638787  0.70848275  0.12728009    -0.11740
C843        C  0.35908887  0.73349351  0.15766597     0.02370
C844        C  0.35541054  0.76074339  0.15212603     0.00090
C845        C  0.33741480  0.76132786  0.11747400    -0.11680
C846        C  0.32447958  0.73640556  0.08739550     0.02260
H847        H  0.34972173  0.68789814  0.13162962     0.15240
H848        H  0.33450227  0.78216634  0.11284868     0.15240
C849        C  0.30745500  0.74003000  0.05190169     0.36890
C850        C  0.37488937  0.73009610  0.19471087     0.36790
N851        N  0.29382885  0.74311477  0.02362013    -0.43450
N852        N  0.38754420  0.72735581  0.22441020    -0.43450
C853        C  0.35433715  0.75925636  0.34590045     0.00130
C854        C  0.37467506  0.75237659  0.37025740    -0.11740
C855        C  0.36243163  0.72636511  0.39859567     0.02370
C856        C  0.32869331  0.70719141  0.40557323     0.00050
C857        C  0.30811054  0.71280239  0.37989800    -0.11680
C858        C  0.32045508  0.73795420  0.34965384     0.02260
H859        H  0.40067859  0.76786281  0.36807133     0.15240
H860        H  0.28215146  0.69755967  0.38352178     0.15240
C861        C  0.29750770  0.74007032  0.32232981     0.36890
C862        C  0.38549943  0.72000267  0.41931460     0.36790
N863        N  0.27878025  0.74150588  0.30075659    -0.43450
N864        N  0.40408494  0.71486732  0.43544101    -0.43450
C865        C  0.19925887  0.57371111  0.40986440     0.00130
C866        C  0.16805574  0.56300967  0.42560464    -0.11740
C867        C  0.14172295  0.55008225  0.39820150     0.02370
C868        C  0.14647246  0.54815196  0.35408099     0.00050
C869        C  0.17761688  0.55867535  0.33802050    -0.11680
C870        C  0.20413723  0.57150095  0.36573740     0.02260
H871        H  0.16422236  0.56448142  0.45956027     0.15240
H872        H  0.18117403  0.55717213  0.30402268     0.15240
C873        C  0.23614234  0.58365524  0.34819493     0.36890
C874        C  0.10984611  0.53831135  0.41612240     0.36790
N875        N  0.26188256  0.59363557  0.33430981    -0.43450
N876        N  0.08424280  0.52869858  0.43027944    -0.43450
C877        C  0.05813381  0.64885468  0.15086621     0.00130
C878        C  0.04884071  0.67237578  0.15280110    -0.11740
C879        C  0.06161245  0.69844515  0.12418743     0.02370
C880        C  0.08531031  0.70227984  0.09398663     0.00050
C881        C  0.09594048  0.67993111  0.09334906    -0.11680
C882        C  0.08215769  0.65301278  0.12055175     0.02260
H883        H  0.03110564  0.67023356  0.17619497     0.15240
H884        H  0.11368188  0.68242397  0.06964167     0.15240
C885        C  0.09150400  0.62895425  0.11401977     0.36890
C886        C  0.04965233  0.72068204  0.12631584     0.36790
N887        N  0.09900778  0.60971316  0.10866768    -0.43450
N888        N  0.03960486  0.73811341  0.12819426    -0.43450
C889        C  0.05089467  0.65004047  0.34943119     0.00130
C890        C  0.03016986  0.65195456  0.37992018    -0.11740
C891        C  0.04145614  0.67753910  0.40901750     0.02370
C892        C  0.07433818  0.70161181  0.40870812     0.00050
C893        C  0.09497763  0.70050388  0.37758375    -0.11680
C894        C  0.08345021  0.67543015  0.34742595     0.02260
H895        H  0.00512305  0.63273675  0.38204389     0.15240
H896        H  0.12018430  0.71946324  0.37670268     0.15240
C897        C  0.10522716  0.67723374  0.31403612     0.36890
C898        C  0.01919462  0.67746171  0.44044304     0.36790
N899        N  0.12276458  0.67883966  0.28726759    -0.43450
N900        N  0.00131026  0.67736479  0.46555716    -0.43450
C901        C  0.35800754  0.55477333  0.15060094     0.00130
C902        C  0.32427318  0.54193679  0.15097048    -0.11740
C903        C  0.30934584  0.55236971  0.12173579     0.02370
C904        C  0.32837286  0.57728926  0.09226061     0.00050
C905        C  0.36206928  0.59123804  0.09351260    -0.11680
C906        C  0.37687637  0.58007030  0.12125428     0.02260
H907        H  0.30914392  0.52325055  0.17363967     0.15240
H908        H  0.37727551  0.61041230  0.07133382     0.15240
C909        C  0.41140773  0.59420196  0.11630099     0.36890
C910        C  0.27450782  0.53624689  0.12212697     0.36790
N911        N  0.43908477  0.60589001  0.11223492    -0.43450
N912        N  0.24657769  0.52306656  0.12225290    -0.43450
C913        C  0.35874292  0.55607893  0.34680205     0.00130
C914        C  0.37955794  0.57973602  0.37626985    -0.11740
C915        C  0.36834209  0.59417474  0.40531935     0.02370
C916        C  0.33531645  0.58425134  0.40670703     0.00050
C917        C  0.31442228  0.56128223  0.37705041    -0.11680
C918        C  0.32587112  0.54783556  0.34648819     0.02260
H919        H  0.40477646  0.58649451  0.37762735     0.15240
H920        H  0.28904904  0.55412029  0.37745949     0.15240
C921        C  0.30350593  0.52702592  0.31440237     0.36890
C922        C  0.39097668  0.61794683  0.43483972     0.36790
N923        N  0.28534355  0.51040620  0.28880389    -0.43450
N924        N  0.40914611  0.63707863  0.45836378    -0.43450
C925        C  0.34231690  0.85848617  0.75148398     0.00850
C926        C  0.36063547  0.84451342  0.75171256     0.00850
C927        C  0.43928396  0.83951476  0.74729298     0.00850
C928        C  0.47167528  0.85358528  0.74808695     0.00850
C929        C  0.47249913  0.56945777  0.74778646     0.00850
C930        C  0.44015169  0.55570613  0.74794431     0.00850
C931        C  0.37260093  0.54018426  0.81932021     0.03420
C932        C  0.40487238  0.55862722  0.80445536    -0.12730
C933        C  0.42069777  0.54300244  0.78807575     0.00920
C934        C  0.40527494  0.50939093  0.79345809    -0.11260
C935        C  0.37167381  0.49262997  0.78880086     0.03410
C936        C  0.35514229  0.50696537  0.80747611    -0.10680
H937        H  0.41684087  0.58479278  0.80329433     0.09010
H938        H  0.41811765  0.49736239  0.78299101     0.06540
H939        H  0.32931813  0.49232723  0.81142811     0.06380
C940        C  0.37273983  0.53970035  0.67738020     0.03420
C941        C  0.35541429  0.50654966  0.68918879    -0.12730
C942        C  0.37204071  0.49246424  0.70742995     0.00920
C943        C  0.40569287  0.50943869  0.70252547    -0.11260
C944        C  0.42077874  0.54299860  0.70830390     0.03410
C945        C  0.40443580  0.55835737  0.69341864    -0.10680
H946        H  0.32944034  0.49216298  0.68673054     0.09010
H947        H  0.41863430  0.49752237  0.71259709     0.06540
H948        H  0.41534106  0.58428536  0.69721556     0.06380
C949        C  0.35925966  0.97345195  0.74808777     0.00850
C950        C  0.34428362  0.94089419  0.74790267     0.00850
C951        C  0.03751511  0.62029996  0.82260846     0.03420
C952        C  0.00627115  0.60716480  0.80532582    -0.12730
C953        C  0.99074355  0.57577313  0.78857990     0.00920
C954        C  0.00477021  0.55680225  0.79666814    -0.11260
C955        C  0.03857913  0.57313959  0.79508084     0.03410
C956        C  0.05471928  0.60397899  0.81398479    -0.10680
H957        H  0.99506498  0.62185960  0.80273405     0.09010
H958        H  0.99181307  0.53179604  0.78640218     0.06540
H959        H  0.08029863  0.61517958  0.81999902     0.06380
C960        C  0.04103343  0.61914416  0.67796462     0.03420
C961        C  0.00757967  0.60440316  0.68784505    -0.12730
C962        C  0.99172278  0.57383722  0.70765922     0.00920
C963        C  0.00792927  0.55638041  0.70635558    -0.11260
C964        C  0.04116956  0.57447938  0.71429392     0.03410
C965        C  0.05819604  0.60569543  0.69699380    -0.10680
H966        H  0.99441848  0.61692779  0.68269340     0.09010
H967        H  0.99491997  0.53147273  0.71705850     0.06540
H968        H  0.08417626  0.61998791  0.70048711     0.06380
C969        C  0.05259868  0.56761126  0.75507061     0.00850
C970        C  0.06873721  0.55140450  0.75497449     0.00850
C971        C  0.11851347  0.53458166  0.82552580     0.03420
C972        C  0.10378705  0.50212020  0.81231758    -0.12730
C973        C  0.07288574  0.48757747  0.79441882     0.00920
C974        C  0.05572145  0.50400269  0.79940311    -0.11260
C975        C  0.07395193  0.53779803  0.79511537     0.03410
C976        C  0.10488171  0.55331472  0.81305231    -0.10680
H977        H  0.11686348  0.48916859  0.81360653     0.09010
H978        H  0.03087707  0.49186731  0.78890031     0.06540
H979        H  0.11884486  0.57947765  0.81492446     0.06380
C980        C  0.37008829  0.78967822  0.81962536     0.03420
C981        C  0.35553408  0.80863094  0.81215915    -0.12730
C982        C  0.37351652  0.83896410  0.79250308     0.00920
C983        C  0.40714752  0.85349621  0.79477877    -0.11260
C984        C  0.41957512  0.83300516  0.78710413     0.03410
C985        C  0.40129102  0.80103226  0.80186085    -0.10680
H986        H  0.33053329  0.80012741  0.81942740     0.09010
H987        H  0.42152947  0.87847826  0.78467961     0.06540
H988        H  0.41057148  0.78475064  0.79753682     0.06380
O989        O  0.32907518  0.66483896  0.55655890    -0.85060
O990        O  0.33430326  0.61174326  0.53452328    -0.82100
C991        C  0.31485092  0.58910129  0.55880801     0.98400
O992        O  0.28486151  0.57641005  0.55344266    -0.82140
O993        O  0.22803633  0.57346278  0.53270087    -0.84780
C994        C  0.22556852  0.59253325  0.55862866     1.02930
O995        O  0.24360462  0.62275373  0.55445024    -0.77540
O996        O  0.29704760  0.68084373  0.53192732    -0.77730
C997        C  0.31771441  0.68352157  0.55882497     1.02880
O998        O  0.33355239  0.68155245  0.96767849    -0.85050
O999        O  0.33360168  0.62586458  0.94633467    -0.82120
C1000       C  0.32187584  0.59591805  0.94034261     0.98420
O1001       O  0.29934346  0.57539470  0.96394296    -0.82150
O1002       O  0.24535393  0.57770585  0.94322116    -0.84750
C1003       C  0.22582771  0.58785692  0.94065678     1.02900
O1004       O  0.22720077  0.60867209  0.96667322    -0.77570
O1005       O  0.28472709  0.66339507  0.94354212    -0.77720
C1006       C  0.31486077  0.68236909  0.94010684     1.02860
Cr1007     Cr  0.32936840  0.64427075  0.00124852     1.93740
Cr1008     Cr  0.26599395  0.57901498  0.99842438     1.93210
Cr1009     Cr  0.26484017  0.64236353  0.99911358     1.39100
O1010       O  0.28677144  0.62177612  0.99961755    -1.22810
C1011       C  0.37206353  0.79042598  0.67875398     0.03420
C1012       C  0.35514313  0.80549281  0.69438392    -0.12730
C1013       C  0.37245399  0.83694356  0.71125813     0.00920
C1014       C  0.40595525  0.85399655  0.70437602    -0.11260
C1015       C  0.42130482  0.83570818  0.70677967     0.03410
C1016       C  0.40526719  0.80493588  0.68807481    -0.10680
H1017       H  0.32899215  0.79217480  0.69578013     0.09010
H1018       H  0.41934646  0.87891766  0.71495082     0.06540
H1019       H  0.41813049  0.79201332  0.68331835     0.06380
C1020       C  0.11940739  0.53605553  0.68105083     0.03420
C1021       C  0.10569340  0.55457396  0.69541422    -0.12730
C1022       C  0.07477733  0.53859734  0.71424236     0.00920
C1023       C  0.05670479  0.50494672  0.70910776    -0.11260
C1024       C  0.07401516  0.48879292  0.71375427     0.03410
C1025       C  0.10515425  0.50379252  0.69581883    -0.10680
H1026       H  0.11907100  0.58073394  0.69361325     0.09010
H1027       H  0.03171662  0.49256000  0.71948618     0.06540
H1028       H  0.11864976  0.49124539  0.69516325     0.06380
C1029       C  0.03884642  0.86928458  0.81956955     0.03420
C1030       C  0.05548672  0.90279407  0.81026772    -0.12730
C1031       C  0.03856489  0.91676970  0.79269404     0.00920
C1032       C  0.00479636  0.89884564  0.79612363    -0.11260
C1033       C  0.99044949  0.86548902  0.78870538     0.03410
C1034       C  0.00695350  0.85030269  0.80399944    -0.10680
H1035       H  0.08121642  0.91777647  0.81492438     0.09010
H1036       H  0.99157328  0.91055304  0.78642192     0.06540
H1037       H  0.99582246  0.82423749  0.80190711     0.06380
C1038       C  0.04050730  0.87229079  0.68008375     0.03420
C1039       C  0.05758342  0.90467831  0.69399511    -0.12730
C1040       C  0.04031092  0.91839192  0.71174346     0.00920
C1041       C  0.00681006  0.90160624  0.70547858    -0.11260
C1042       C  0.99143060  0.86778487  0.70862266     0.03410
C1043       C  0.00772764  0.85296376  0.69130735    -0.10680
H1044       H  0.08374911  0.91805023  0.69365833     0.09010
H1045       H  0.99351508  0.91309840  0.71621556     0.06540
H1046       H  0.99570401  0.82684773  0.68880461     0.06380
O1047       O  0.18241741  0.80029965  0.53119041    -0.85060
O1048       O  0.12666377  0.74417864  0.55189990    -0.82100
C1049       C  0.09689649  0.72724766  0.56024220     0.98400
O1050       O  0.07637134  0.73017460  0.53878187    -0.82140
O1051       O  0.08145457  0.78817970  0.55950203    -0.84780
C1052       C  0.09176310  0.81809876  0.56058487     1.02930
O1053       O  0.11212731  0.83656656  0.53331625    -0.77540
O1054       O  0.16628313  0.83301602  0.55465864    -0.77730
C1055       C  0.18445348  0.82107106  0.55808848     1.02880
O1056       O  0.16560549  0.78830348  0.94184878    -0.85050
O1057       O  0.11202021  0.73031777  0.96286601    -0.82120
C1058       C  0.08801399  0.72678093  0.94200173     0.98420
O1059       O  0.07519764  0.74361098  0.95009515    -0.82150
O1060       O  0.07525176  0.79920744  0.97028999    -0.84750
C1061       C  0.09350614  0.81959513  0.94260064     1.02900
O1062       O  0.12380153  0.83176471  0.94505616    -0.77570
O1063       O  0.18225094  0.83683432  0.96641694    -0.77720
C1064       C  0.18483541  0.81838052  0.93999195     1.02860
Cr1065     Cr  0.14490530  0.76740648  0.99716168     1.93740
Cr1066     Cr  0.08050064  0.76698572  0.00441740     1.93210
Cr1067     Cr  0.14443785  0.83112859  0.99988182     1.39100
O1068       O  0.12318306  0.78824372  0.00042506    -1.22810
C1069       C  0.29082224  0.87459487  0.81954481     0.03420
C1070       C  0.30526375  0.85623559  0.80863644    -0.12730
C1071       C  0.33653948  0.87196183  0.79138452     0.00920
C1072       C  0.35441383  0.90580900  0.79481579    -0.11260
C1073       C  0.33708329  0.92181574  0.78846277     0.03410
C1074       C  0.30568997  0.90704309  0.80564405    -0.10680
H1075       H  0.29184965  0.83009927  0.81131406     0.09010
H1076       H  0.37941150  0.91799290  0.78443650     0.06540
H1077       H  0.29230129  0.91969917  0.80570884     0.06380
C1078       C  0.29088268  0.87455680  0.67948888     0.03420
C1079       C  0.30345529  0.85562336  0.69613732    -0.12730
C1080       C  0.33533429  0.87073705  0.71132209     0.00920
C1081       C  0.35463777  0.90412790  0.70423005    -0.11260
C1082       C  0.33885123  0.92196233  0.70726729     0.03410
C1083       C  0.30838360  0.90821663  0.68819249    -0.10680
H1084       H  0.28812945  0.82964063  0.69926599     0.09010
H1085       H  0.37956870  0.91585176  0.71436100     0.06540
H1086       H  0.29863911  0.92373413  0.68205690     0.06380
C1087       C  0.05173950  0.93668540  0.75283771     0.00850
C1088       C  0.06726816  0.96917811  0.75366317     0.00850
C1089       C  0.26200442  0.86077371  0.84741896     0.00130
C1090       C  0.26576089  0.87476151  0.88780788    -0.11740
C1091       C  0.24124701  0.86092438  0.91842122     0.02370
C1092       C  0.21162988  0.83269452  0.90845854     0.00050
C1093       C  0.20770983  0.81873864  0.86771214    -0.11680
C1094       C  0.23269606  0.83256000  0.83716865     0.02260
H1095       H  0.28862694  0.89596905  0.89610634     0.15240
H1096       H  0.18505718  0.79725338  0.85960695     0.15240
C1097       C  0.22757042  0.81794148  0.79538852     0.36890
C1098       C  0.24812895  0.87528070  0.96056900     0.36790
N1099       N  0.22349601  0.80632485  0.76182681    -0.43450
N1100       N  0.25378848  0.88673714  0.99432265    -0.43450
C1101       C  0.20957008  0.83243129  0.59222862     0.00130
C1102       C  0.21333861  0.85691176  0.62066953    -0.11740
C1103       C  0.23801781  0.86972429  0.65135328     0.02370
C1104       C  0.26075670  0.85906168  0.65293208     0.00050
C1105       C  0.25585767  0.83350148  0.62583957    -0.11680
C1106       C  0.23043513  0.81970179  0.59672485     0.02260
H1107       H  0.19686160  0.86613885  0.61910725     0.15240
H1108       H  0.27252934  0.82448716  0.62649838     0.15240
C1109       C  0.22665062  0.79228961  0.57240732     0.36890
C1110       C  0.23817117  0.89263046  0.68158301     0.36790
N1111       N  0.22359570  0.77014907  0.55338386    -0.43450
N1112       N  0.23808505  0.91103005  0.70559976    -0.43450
C1113       C  0.07896760  0.83197085  0.59178823     0.00130
C1114       C  0.07419811  0.82172529  0.63461101    -0.11740
C1115       C  0.06258471  0.83521361  0.66475996     0.02370
C1116       C  0.05589858  0.85937277  0.65191562     0.00050
C1117       C  0.06100374  0.86980942  0.60942104    -0.11680
C1118       C  0.07212038  0.85620620  0.57926265     0.02260
H1119       H  0.07992757  0.80355337  0.64457396     0.15240
H1120       H  0.05515893  0.88793995  0.59945846     0.15240
C1121       C  0.07452556  0.86638057  0.53526694     0.36890
C1122       C  0.05818573  0.82442549  0.70859662     0.36790
N1123       N  0.07626437  0.87450143  0.00007312    -0.43450
N1124       N  0.05473559  0.81586259  0.74378149    -0.43450
C1125       C  0.07892885  0.83007778  0.90865996     0.00130
C1126       C  0.09858990  0.85078609  0.87570421    -0.11740
C1127       C  0.08605308  0.86250400  0.84456953     0.02370
C1128       C  0.05327449  0.85426037  0.84667404     0.00050
C1129       C  0.03342829  0.83242640  0.87831414    -0.11680
C1130       C  0.04555260  0.82005401  0.90860959     0.02260
H1131       H  0.12391029  0.85787233  0.87410540     0.15240
H1132       H  0.00818725  0.82564212  0.88036906     0.15240
C1133       C  0.02273178  0.79754113  0.93943279     0.36890
C1134       C  0.10709829  0.88178465  0.81010726     0.36790
N1135       N  0.00423004  0.77940549  0.96381885    -0.43450
N1136       N  0.12403892  0.89717577  0.78247812    -0.43450
C1137       C  0.19986770  0.57866616  0.59214836     0.00130
C1138       C  0.17398360  0.54702010  0.58616904    -0.11740
C1139       C  0.14822299  0.53273793  0.61511636     0.02370
C1140       C  0.14797134  0.54991723  0.65185977     0.00050
C1141       C  0.17411933  0.58137650  0.65850506    -0.11680
C1142       C  0.19991751  0.59583925  0.62913211     0.02260
H1143       H  0.17324378  0.53351012  0.55788690     0.15240
H1144       H  0.17441568  0.59475811  0.68667347     0.15240
C1145       C  0.22615997  0.62806065  0.63816664     0.36890
C1146       C  0.12148616  0.50104557  0.60469780     0.36790
N1147       N  0.24719547  0.65388749  0.64538394    -0.43450
N1148       N  0.10013161  0.97566557  0.59636306    -0.43450
C1149       C  0.32946207  0.70972331  0.59148395     0.00130
C1150       C  0.34638760  0.70848268  0.62727950    -0.11740
C1151       C  0.35908839  0.73349334  0.65766550     0.02370
C1152       C  0.35541002  0.76074319  0.65212555     0.00090
C1153       C  0.33741440  0.76132773  0.61747340    -0.11680
C1154       C  0.32447939  0.73640553  0.58739476     0.02260
H1155       H  0.34972150  0.68789810  0.63162902     0.15240
H1156       H  0.33450185  0.78216619  0.61284810     0.15240
C1157       C  0.30745497  0.74003002  0.55190082     0.36890
C1158       C  0.37488878  0.73009589  0.69471049     0.36790
N1159       N  0.29382894  0.74311484  0.52361914    -0.43450
N1160       N  0.38754353  0.72735557  0.72440989    -0.43450
C1161       C  0.35433641  0.75925598  0.84590081     0.00130
C1162       C  0.37467436  0.75237580  0.87025706    -0.11740
C1163       C  0.36243097  0.72636438  0.89859544     0.02370
C1164       C  0.32869272  0.70719120  0.90557391     0.00050
C1165       C  0.30810987  0.71280256  0.87989940    -0.11680
C1166       C  0.32045430  0.73795426  0.84965510     0.02260
H1167       H  0.40067790  0.76786165  0.86807036     0.15240
H1168       H  0.28215081  0.69756021  0.88352390     0.15240
C1169       C  0.29750668  0.74007067  0.82233192     0.36890
C1170       C  0.38549868  0.72000139  0.91931349     0.36790
N1171       N  0.27877899  0.74150646  0.80075944    -0.43450
N1172       N  0.40408411  0.71486557  0.93543918    -0.43450
C1173       C  0.19925879  0.57371165  0.90986467     0.00130
C1174       C  0.16805558  0.56301008  0.92560466    -0.11740
C1175       C  0.14172295  0.55008291  0.89820125     0.02370
C1176       C  0.14647272  0.54815300  0.85408074     0.00050
C1177       C  0.17761723  0.55867657  0.83802048    -0.11680
C1178       C  0.20413742  0.57150193  0.86573764     0.02260
H1179       H  0.16422200  0.56448152  0.95956031     0.15240
H1180       H  0.18117458  0.55717366  0.80402265     0.15240
C1181       C  0.23614262  0.58365640  0.84819543     0.36890
C1182       C  0.10984601  0.53831187  0.91612188     0.36790
N1183       N  0.26188292  0.59363688  0.83431053    -0.43450
N1184       N  0.08424262  0.52869899  0.93027870    -0.43450
C1185       C  0.05813435  0.64885573  0.65086490     0.00130
C1186       C  0.04884127  0.67237685  0.65279947    -0.11740
C1187       C  0.06161299  0.69844607  0.62418556     0.02370
C1188       C  0.08531086  0.70228062  0.59398486     0.00050
C1189       C  0.09594105  0.67993191  0.59334763    -0.11680
C1190       C  0.08215825  0.65301370  0.62055053     0.02260
H1191       H  0.03110619  0.67023476  0.67619325     0.15240
H1192       H  0.11368246  0.68242467  0.56964031     0.15240
C1193       C  0.09150457  0.62895516  0.61401885     0.36890
C1194       C  0.04965279  0.72068290  0.62631361     0.36790
N1195       N  0.09900837  0.60971406  0.60866699    -0.43450
N1196       N  0.03960521  0.73811418  0.62819179    -0.43450
C1197       C  0.05089527  0.65004140  0.84943149     0.00130
C1198       C  0.03017013  0.65195517  0.87992023    -0.11740
C1199       C  0.04145609  0.67753934  0.90901808     0.02370
C1200       C  0.07433816  0.70161194  0.90870954     0.00050
C1201       C  0.09497796  0.70050435  0.87758543    -0.11680
C1202       C  0.08345086  0.67543102  0.84742707     0.02260
H1203       H  0.00512327  0.63273740  0.88204333     0.15240
H1204       H  0.12018466  0.71946367  0.87670501     0.15240
C1205       C  0.10522820  0.67723500  0.81403756     0.36890
C1206       C  0.01919421  0.67746167  0.94044324     0.36790
N1207       N  0.12276593  0.67884125  0.78726929    -0.43450
N1208       N  0.00130954  0.67736452  0.96555704    -0.43450
C1209       C  0.35800812  0.55477384  0.65060055     0.00130
C1210       C  0.32427385  0.54193783  0.65097086    -0.11740
C1211       C  0.30934646  0.55237075  0.62173623     0.02370
C1212       C  0.32837337  0.57728967  0.59226023     0.00050
C1213       C  0.36206976  0.59123787  0.59351135    -0.11680
C1214       C  0.37687686  0.58007018  0.62125308     0.02260
H1215       H  0.30914473  0.52325205  0.67364066     0.15240
H1216       H  0.37727591  0.61041161  0.57133190     0.15240
C1217       C  0.41140809  0.59420112  0.61629908     0.36890
C1218       C  0.27450849  0.53624864  0.62212846     0.36790
N1219       N  0.43908503  0.60588859  0.61223247    -0.43450
N1220       N  0.24657838  0.52306891  0.62225524    -0.43450
C1221       C  0.35874295  0.55607938  0.84680200     0.00130
C1222       C  0.37955791  0.57973646  0.87626985    -0.11740
C1223       C  0.36834194  0.59417500  0.90531951     0.02370
C1224       C  0.33531626  0.58425143  0.90670727     0.00050
C1225       C  0.31442215  0.56128233  0.87705060    -0.11680
C1226       C  0.32587109  0.54783583  0.84648825     0.02260
H1227       H  0.40477646  0.58649509  0.87762727     0.15240
H1228       H  0.28904888  0.55412027  0.87745971     0.15240
C1229       C  0.30350594  0.52702617  0.81440240     0.36890
C1230       C  0.39097648  0.61794707  0.93483994     0.36790
N1231       N  0.28534359  0.51040645  0.78880391    -0.43450
N1232       N  0.40914587  0.63707885  0.95836406    -0.43450
C1233       C  0.84230894  0.35848898  0.25148982     0.00850
C1234       C  0.86061382  0.34450092  0.25171581     0.00850
C1235       C  0.93927367  0.33952208  0.24729560     0.00850
C1236       C  0.97166424  0.35358430  0.24808831     0.00850
C1237       C  0.97252256  0.06945734  0.24778966     0.00850
C1238       C  0.94017488  0.05570427  0.24794376     0.00850
C1239       C  0.87261322  0.04015913  0.31933055     0.03420
C1240       C  0.90487915  0.05861165  0.30444373    -0.12730
C1241       C  0.92071747  0.04299715  0.28807148     0.00920
C1242       C  0.90530801  0.00938717  0.29345852    -0.11260
C1243       C  0.87170666  0.99261463  0.28880994     0.03410
C1244       C  0.85516806  0.00693607  0.30750167    -0.10680
H1245       H  0.91683399  0.08477574  0.30326081     0.09010
H1246       H  0.91815760  0.99736614  0.28298957     0.06540
H1247       H  0.82934836  0.99228026  0.31147580     0.06380
C1248       C  0.87276330  0.03968823  0.17737747     0.03420
C1249       C  0.85544089  0.00653759  0.18918879    -0.12730
C1250       C  0.87207051  0.99245618  0.20743345     0.00920
C1251       C  0.90572239  0.00943372  0.20252722    -0.11260
C1252       C  0.92080490  0.04299377  0.20830232     0.03410
C1253       C  0.90445864  0.05834840  0.19341590    -0.10680
H1254       H  0.82946705  0.99214867  0.18673182     0.09010
H1255       H  0.91866667  0.99752041  0.21259890     0.06540
H1256       H  0.91536029  0.08427587  0.19721463     0.06380
C1257       C  0.85922963  0.47346055  0.24808391     0.00850
C1258       C  0.84428777  0.44090452  0.24790226     0.00850
C1259       C  0.53753291  0.12030265  0.32261634     0.03420
C1260       C  0.50628878  0.10716364  0.30533273    -0.12730
C1261       C  0.49076546  0.07577247  0.28858514     0.00920
C1262       C  0.50479645  0.05680536  0.29667315    -0.11260
C1263       C  0.53860572  0.07314700  0.29508858     0.03410
C1264       C  0.55474129  0.10398587  0.31399390    -0.10680
H1265       H  0.49507952  0.12185557  0.30274061     0.09010
H1266       H  0.49184287  0.03179949  0.28640540     0.06540
H1267       H  0.58032070  0.11518959  0.32000970     0.06380
C1268       C  0.54105752  0.11915357  0.17797359     0.03420
C1269       C  0.50760298  0.10440733  0.18785179    -0.12730
C1270       C  0.49174955  0.07384069  0.20766423     0.00920
C1271       C  0.50796072  0.05638855  0.20636081    -0.11260
C1272       C  0.54120030  0.07449165  0.21430218     0.03410
C1273       C  0.55822352  0.10570878  0.19700403    -0.10680
H1274       H  0.49443832  0.11692834  0.18269947     0.09010
H1275       H  0.49495423  0.03148032  0.21706180     0.06540
H1276       H  0.58420340  0.12000450  0.20049886     0.06380
C1277       C  0.55262927  0.06762314  0.25507902     0.00850
C1278       C  0.56876723  0.05141562  0.25498235     0.00850
C1279       C  0.61853784  0.03457961  0.32552845     0.03420
C1280       C  0.60380556  0.00211796  0.31231962    -0.12730
C1281       C  0.57290422  0.98758063  0.29442183     0.00920
C1282       C  0.55574517  0.00401106  0.29940851    -0.11260
C1283       C  0.57398046  0.03780632  0.29512198     0.03410
C1284       C  0.60491109  0.05331783  0.31305710    -0.10680
H1285       H  0.61687769  0.98916198  0.31360734     0.09010
H1286       H  0.53090072  0.99187973  0.28890642     0.06540
H1287       H  0.61887820  0.07948053  0.31493034     0.06380
C1288       C  0.87008473  0.28967203  0.31962689     0.03420
C1289       C  0.85551985  0.30861437  0.31215548    -0.12730
C1290       C  0.87349623  0.33895043  0.29250414     0.00920
C1291       C  0.90712808  0.35349181  0.29478205    -0.11260
C1292       C  0.91956539  0.33300903  0.28710796     0.03410
C1293       C  0.90129020  0.30103601  0.30186665    -0.10680
H1294       H  0.83051612  0.30010088  0.31941786     0.09010
H1295       H  0.92150433  0.37847471  0.28468410     0.06540
H1296       H  0.91057940  0.28476133  0.29754691     0.06380
O1297       O  0.82909701  0.16483956  0.05655958    -0.85060
O1298       O  0.83432389  0.11174037  0.03453659    -0.82100
C1299       C  0.81487151  0.08909823  0.05882149     0.98400
O1300       O  0.78488210  0.07640782  0.05345729    -0.82140
O1301       O  0.72805707  0.07345844  0.03270852    -0.84780
C1302       C  0.72558940  0.09253040  0.05863341     1.02930
O1303       O  0.74362529  0.12275060  0.05445189    -0.77540
O1304       O  0.79706695  0.18083953  0.03192284    -0.77730
C1305       C  0.81773419  0.18352068  0.05882184     1.02880
O1306       O  0.83357317  0.18154370  0.46767647    -0.85050
O1307       O  0.83362208  0.12585347  0.44634523    -0.82120
C1308       C  0.82189672  0.09590637  0.44035811     0.98420
O1309       O  0.79936593  0.07538571  0.46396284    -0.82150
O1310       O  0.74537627  0.07769435  0.44323224    -0.84750
C1311       C  0.72584942  0.08784443  0.44066394     1.02900
O1312       O  0.72722168  0.10866129  0.46667669    -0.77570
O1313       O  0.78474705  0.16338430  0.44354173    -0.77720
C1314       C  0.81488039  0.18236041  0.44010655     1.02860
Cr1315     Cr  0.82938965  0.14426526  0.50125510     1.93740
Cr1316     Cr  0.76601583  0.07900846  0.49843804     1.93210
Cr1317     Cr  0.76486049  0.14235611  0.49911466     1.39100
O1318       O  0.78679272  0.12176982  0.49962489    -1.22810
C1319       C  0.87205875  0.29042513  0.17875326     0.03420
C1320       C  0.85513110  0.30548418  0.19438483    -0.12730
C1321       C  0.87243519  0.33693519  0.21126036     0.00920
C1322       C  0.90593674  0.35399520  0.20437961    -0.11260
C1323       C  0.92129359  0.33571363  0.20678230     0.03410
C1324       C  0.90526291  0.30494224  0.18807458    -0.10680
H1325       H  0.82898014  0.29216044  0.19578028     0.09010
H1326       H  0.91932286  0.37891623  0.21495571     0.06540
H1327       H  0.91813173  0.29202529  0.18331707     0.06380
C1328       C  0.61943042  0.03605882  0.18105734     0.03420
C1329       C  0.60572068  0.05458062  0.19542208    -0.12730
C1330       C  0.57480462  0.03860739  0.21424957     0.00920
C1331       C  0.55672760  0.00495710  0.20911301    -0.11260
C1332       C  0.57403338  0.98879839  0.21375747     0.03410
C1333       C  0.60517271  0.00379477  0.19582292    -0.10680
H1334       H  0.61910138  0.08074063  0.19362252     0.09010
H1335       H  0.53173950  0.99257348  0.21949162     0.06540
H1336       H  0.61866490  0.99124424  0.19516613     0.06380
C1337       C  0.53883558  0.36928070  0.31956835     0.03420
C1338       C  0.55547661  0.40279031  0.31026690    -0.12730
C1339       C  0.53855545  0.41676698  0.29269418     0.00920
C1340       C  0.50478695  0.39884387  0.29612448    -0.11260
C1341       C  0.49043906  0.36548722  0.28870566     0.03410
C1342       C  0.50694238  0.35029975  0.30399863    -0.10680
H1343       H  0.58120639  0.41777216  0.31492329     0.09010
H1344       H  0.49156455  0.41055206  0.28642299     0.06540
H1345       H  0.49581056  0.32423451  0.30190580     0.06380
C1346       C  0.54049510  0.37228569  0.18008521     0.03420
C1347       C  0.55757238  0.40467305  0.19399671    -0.12730
C1348       C  0.54030088  0.41838801  0.21174391     0.00920
C1349       C  0.50680014  0.40160382  0.20547844    -0.11260
C1350       C  0.49141927  0.36778244  0.20862320     0.03410
C1351       C  0.50771523  0.35295984  0.19130871    -0.10680
H1352       H  0.58373808  0.41804405  0.19366010     0.09010
H1353       H  0.49350617  0.41309714  0.21621523     0.06540
H1354       H  0.49569053  0.32684376  0.18880601     0.06380
O1355       O  0.68241978  0.30031652  0.03119496    -0.85060
O1356       O  0.62667104  0.24419006  0.05190390    -0.82100
C1357       C  0.59690415  0.22725586  0.06024699     0.98400
O1358       O  0.57637668  0.23017943  0.03878711    -0.82140
O1359       O  0.58145085  0.28818116  0.05950246    -0.84780
C1360       C  0.59175497  0.31809934  0.06058343     1.02930
O1361       O  0.61211694  0.33656794  0.03331330    -0.77540
O1362       O  0.66627670  0.33302670  0.05466044    -0.77730
C1363       C  0.68444948  0.32108486  0.05809387     1.02880
O1364       O  0.66560942  0.28831677  0.44185223    -0.85050
O1365       O  0.61202901  0.23032711  0.46286969    -0.82120
C1366       C  0.58802065  0.22678534  0.44200588     0.98420
O1367       O  0.57520010  0.24361164  0.45009831    -0.82150
O1368       O  0.57524539  0.29920436  0.47028711    -0.84750
C1369       C  0.59349858  0.31959326  0.44259781     1.02900
O1370       O  0.62379443  0.33176628  0.44505384    -0.77570
O1371       O  0.68224853  0.33684681  0.46641895    -0.77720
C1372       C  0.68483691  0.31839428  0.43999577     1.02860
Cr1373     Cr  0.64491030  0.26741890  0.49716510     1.93740
Cr1374     Cr  0.58049990  0.26698724  0.50441851     1.93210
Cr1375     Cr  0.64443166  0.33113531  0.49988089     1.39100
O1376       O  0.62318239  0.28825049  0.50042607    -1.22810
C1377       C  0.79083120  0.37461327  0.31956055     0.03420
C1378       C  0.80526822  0.35625003  0.30865135    -0.12730
C1379       C  0.83654119  0.37197113  0.29139141     0.00920
C1380       C  0.85441921  0.40581872  0.29481637    -0.11260
C1381       C  0.83709128  0.42182842  0.28846495     0.03410
C1382       C  0.80570056  0.40706074  0.30565529    -0.10680
H1383       H  0.79185150  0.33011391  0.31133215     0.09010
H1384       H  0.87941592  0.41799933  0.28443373     0.06540
H1385       H  0.79231383  0.41971880  0.30572073     0.06380
C1386       C  0.79088506  0.37457589  0.17948739     0.03420
C1387       C  0.80344794  0.35563665  0.19614807    -0.12730
C1388       C  0.83532793  0.37074287  0.21132941     0.00920
C1389       C  0.85463915  0.40413224  0.20423376    -0.11260
C1390       C  0.83886074  0.42197441  0.20726552     0.03410
C1391       C  0.80839770  0.40823728  0.18818051    -0.10680
H1392       H  0.78811455  0.32965583  0.19928932     0.09010
H1393       H  0.87956996  0.41585097  0.21436376     0.06540
H1394       H  0.79866711  0.42376440  0.18203077     0.06380
C1395       C  0.55172964  0.43668221  0.25283740     0.00850
C1396       C  0.56725317  0.46917471  0.25366132     0.00850
C1397       C  0.76201191  0.36079329  0.34743204     0.00130
C1398       C  0.76576772  0.37477581  0.38782458    -0.11740
C1399       C  0.74125163  0.36093634  0.41843513     0.02370
C1400       C  0.71163338  0.33271017  0.40846561     0.00050
C1401       C  0.70771416  0.31875968  0.36771588    -0.11680
C1402       C  0.73270233  0.33258295  0.33717542     0.02260
H1403       H  0.78863473  0.39598024  0.39612797     0.15240
H1404       H  0.68506071  0.29727705  0.35960589     0.15240
C1405       C  0.72757790  0.31796927  0.29539216     0.36890
C1406       C  0.74813210  0.37528510  0.46058742     0.36790
N1407       N  0.72350463  0.30635649  0.26182804    -0.43450
N1408       N  0.75379031  0.38673504  0.49434491    -0.43450
C1409       C  0.70956296  0.33244665  0.09223779     0.00130
C1410       C  0.71335656  0.35695657  0.12064050    -0.11740
C1411       C  0.73803744  0.36977257  0.15132169     0.02370
C1412       C  0.76075556  0.35908372  0.15293401     0.00050
C1413       C  0.75582960  0.33349461  0.12587957    -0.11680
C1414       C  0.73040217  0.31969074  0.09677232     0.02260
H1415       H  0.69689838  0.36620515  0.11904927     0.15240
H1416       H  0.77248250  0.32445815  0.12656249     0.15240
C1417       C  0.72658133  0.29224310  0.07250722     0.36890
C1418       C  0.73821167  0.39271079  0.18151286     0.36790
N1419       N  0.72349626  0.27007403  0.05352640    -0.43450
N1420       N  0.73814140  0.41113674  0.20549655    -0.43450
C1421       C  0.57895721  0.33196911  0.09178699     0.00130
C1422       C  0.57418859  0.32172329  0.13460968    -0.11740
C1423       C  0.56257385  0.33520992  0.16475925     0.02370
C1424       C  0.55588535  0.35936752  0.15191557     0.00050
C1425       C  0.56098912  0.36980410  0.10942096    -0.11680
C1426       C  0.57210724  0.35620267  0.07926201     0.02260
H1427       H  0.57992008  0.30355271  0.14457218     0.15240
H1428       H  0.55514269  0.38793360  0.09945903     0.15240
C1429       C  0.57451164  0.36637729  0.03526654     0.36890
C1430       C  0.55817626  0.32442194  0.20859587     0.36790
N1431       N  0.57624925  0.37449841  0.50007232    -0.43450
N1432       N  0.55472724  0.31585912  0.24378069    -0.43450
C1433       C  0.57891969  0.33007394  0.40865669     0.00130
C1434       C  0.59857985  0.35078189  0.37570008    -0.11740
C1435       C  0.58604226  0.36249928  0.34456581     0.02370
C1436       C  0.55326369  0.35425563  0.34667148     0.00050
C1437       C  0.53341810  0.33242145  0.37831194    -0.11680
C1438       C  0.54554331  0.32004956  0.40860715     0.02260
H1439       H  0.62390032  0.35786846  0.37410042     0.15240
H1440       H  0.50817702  0.32563692  0.38036760     0.15240
C1441       C  0.52272350  0.29753701  0.43943146     0.36890
C1442       C  0.60708681  0.38177966  0.31010287     0.36790
N1443       N  0.50422253  0.27940162  0.46381842    -0.43450
N1444       N  0.62402691  0.39717060  0.28247322    -0.43450
C1445       C  0.69988901  0.07866507  0.09215321     0.00130
C1446       C  0.67400342  0.04701990  0.08617377    -0.11740
C1447       C  0.64824343  0.03273883  0.11512191     0.02370
C1448       C  0.64799421  0.04991832  0.15186641     0.00050
C1449       C  0.67414384  0.08137672  0.15851176    -0.11680
C1450       C  0.69994114  0.09583856  0.12913758     0.02260
H1451       H  0.67326192  0.03350988  0.05789083     0.15240
H1452       H  0.67444200  0.09475855  0.18668088     0.15240
C1453       C  0.72618500  0.12805943  0.13817122     0.36890
C1454       C  0.62150473  0.00104772  0.10470284     0.36790
N1455       N  0.74722153  0.15388590  0.14538766    -0.43450
N1456       N  0.60011455  0.47566234  0.09635867    -0.43450
C1457       C  0.82947822  0.20972361  0.09147921     0.00130
C1458       C  0.84640385  0.20848686  0.12727711    -0.11740
C1459       C  0.85909811  0.23349718  0.15766390     0.02370
C1460       C  0.85541248  0.26074261  0.15212298     0.00090
C1461       C  0.83741766  0.26132366  0.11746769    -0.11680
C1462       C  0.82448971  0.23640210  0.08738766     0.02260
H1463       H  0.84974257  0.18790541  0.13162821     0.15240
H1464       H  0.83450019  0.28215906  0.11284127     0.15240
C1465       C  0.80746599  0.24002337  0.05189022     0.36890
C1466       C  0.87489951  0.23010391  0.19471077     0.36790
N1467       N  0.79384053  0.24310555  0.02360562    -0.43450
N1468       N  0.88755521  0.22736713  0.22441167    -0.43450
C1469       C  0.85434125  0.25925055  0.34590362     0.00130
C1470       C  0.87468483  0.25238484  0.37027056    -0.11740
C1471       C  0.86244806  0.22637404  0.39860967     0.02370
C1472       C  0.82870956  0.20718524  0.40557598     0.00050
C1473       C  0.80812226  0.21278337  0.37989125    -0.11680
C1474       C  0.82046120  0.23793562  0.34964792     0.02260
H1475       H  0.90068735  0.26788195  0.36809146     0.15240
H1476       H  0.78216376  0.19752993  0.38350660     0.15240
C1477       C  0.79751117  0.24003954  0.32231508     0.36890
C1478       C  0.88552341  0.22002959  0.41934244     0.36790
N1479       N  0.77878174  0.24146529  0.30073451    -0.43450
N1480       N  0.90411555  0.21490926  0.43547996    -0.43450
C1481       C  0.69928088  0.07369682  0.40987140     0.00130
C1482       C  0.66807652  0.06298839  0.42561190    -0.11740
C1483       C  0.64174464  0.05006402  0.39820725     0.02370
C1484       C  0.64649634  0.04814484  0.35408486     0.00050
C1485       C  0.67764196  0.05867369  0.33802430    -0.11680
C1486       C  0.70416131  0.07149506  0.36574304     0.02260
H1487       H  0.66424172  0.06445346  0.45956865     0.15240
H1488       H  0.68120080  0.05717796  0.30402531     0.15240
C1489       C  0.73616747  0.08365294  0.34820220     0.36890
C1490       C  0.60986663  0.03828615  0.41612802     0.36790
N1491       N  0.76190874  0.09363541  0.33431963    -0.43450
N1492       N  0.58426239  0.02866770  0.43028497    -0.43450
C1493       C  0.55815481  0.14886568  0.15087368     0.00130
C1494       C  0.54885590  0.17238251  0.15280687    -0.11740
C1495       C  0.56162314  0.19845092  0.12419160     0.02370
C1496       C  0.58532216  0.20228918  0.09399045     0.00050
C1497       C  0.59595819  0.17994502  0.09335471    -0.11680
C1498       C  0.58218007  0.15302756  0.12055925     0.02260
H1499       H  0.53111962  0.17023753  0.17620063     0.15240
H1500       H  0.61370073  0.18244058  0.06964746     0.15240
C1501       C  0.59153239  0.12897339  0.11402908     0.36890
C1502       C  0.54965747  0.22068328  0.12631900     0.36790
N1503       N  0.59904090  0.10973571  0.10867837    -0.43450
N1504       N  0.53960574  0.23811108  0.12819663    -0.43450
C1505       C  0.55090967  0.15004434  0.34943824     0.00130
C1506       C  0.53018282  0.15195567  0.37992636    -0.11740
C1507       C  0.54146615  0.17754009  0.40902346     0.02370
C1508       C  0.57434737  0.20161523  0.40871501     0.00050
C1509       C  0.59498868  0.20051009  0.37759129    -0.11680
C1510       C  0.58346404  0.17543667  0.34743338     0.02260
H1511       H  0.50513678  0.13273595  0.38204946     0.15240
H1512       H  0.62019453  0.21947156  0.37671055     0.15240
C1513       C  0.60524241  0.17724340  0.31404358     0.36890
C1514       C  0.51920252  0.17746039  0.44044741     0.36790
N1515       N  0.62278094  0.17885188  0.28727505    -0.43450
N1516       N  0.50131641  0.17736168  0.46556011    -0.43450
C1517       C  0.85802927  0.05476074  0.15059961     0.00130
C1518       C  0.82429439  0.04192089  0.15096687    -0.11740
C1519       C  0.80936678  0.05235770  0.12173791     0.02370
C1520       C  0.82839380  0.07728412  0.09227097     0.00050
C1521       C  0.86209031  0.09123527  0.09352506    -0.11680
C1522       C  0.87689779  0.08006367  0.12125987     0.02260
H1523       H  0.80916492  0.02322954  0.17362997     0.15240
H1524       H  0.87729655  0.11041452  0.07135240     0.15240
C1525       C  0.91142951  0.09419834  0.11630591     0.36890
C1526       C  0.77452860  0.03623168  0.12212585     0.36790
N1527       N  0.93910680  0.10588900  0.11223940    -0.43450
N1528       N  0.74659836  0.02304883  0.12224929    -0.43450
C1529       C  0.85874855  0.05605136  0.34681207     0.00130
C1530       C  0.87957877  0.07976397  0.37621342    -0.11740
C1531       C  0.86836652  0.09420957  0.40525751     0.02370
C1532       C  0.83532961  0.08423422  0.40671790     0.00050
C1533       C  0.81441825  0.06120866  0.37712962    -0.11680
C1534       C  0.82585981  0.04775603  0.34656649     0.02260
H1535       H  0.90480992  0.08656429  0.37752551     0.15240
H1536       H  0.78903483  0.05400743  0.37759077     0.15240
C1537       C  0.80346195  0.02688388  0.31455260     0.36890
C1538       C  0.89102202  0.11804662  0.43469679     0.36790
N1539       N  0.78526963  0.01021231  0.28901614    -0.43450
N1540       N  0.90920887  0.13723177  0.45815341    -0.43450
C1541       C  0.84231012  0.35849146  0.75148905     0.00850
C1542       C  0.86061412  0.34450244  0.75171528     0.00850
C1543       C  0.93927398  0.33952367  0.74729537     0.00850
C1544       C  0.97166453  0.35358574  0.74808808     0.00850
C1545       C  0.97252247  0.06945622  0.74778972     0.00850
C1546       C  0.94017475  0.05570266  0.74794371     0.00850
C1547       C  0.87261303  0.04015800  0.81933022     0.03420
C1548       C  0.90487895  0.05861039  0.80444332    -0.12730
C1549       C  0.92071725  0.04299576  0.78807144     0.00920
C1550       C  0.90530777  0.00938580  0.79345890    -0.11260
C1551       C  0.87170640  0.99261324  0.78881041     0.03410
C1552       C  0.85516786  0.00693484  0.80750183    -0.10680
H1553       H  0.91683381  0.08477448  0.80326003     0.09010
H1554       H  0.91815732  0.99736468  0.78299022     0.06540
H1555       H  0.82934817  0.99227907  0.81147607     0.06380
C1556       C  0.87276346  0.03968657  0.67737720     0.03420
C1557       C  0.85544076  0.00653612  0.68918922    -0.12730
C1558       C  0.87207022  0.99245458  0.70743399     0.00920
C1559       C  0.90572211  0.00943182  0.70252765    -0.11260
C1560       C  0.92080491  0.04299194  0.70830217     0.03410
C1561       C  0.90445898  0.05834670  0.69341504    -0.10680
H1562       H  0.82946686  0.99214755  0.68673253     0.09010
H1563       H  0.91866623  0.99751841  0.71259960     0.06540
H1564       H  0.91536109  0.08427433  0.69721248     0.06380
C1565       C  0.85923095  0.47346282  0.74808234     0.00850
C1566       C  0.84428840  0.44090675  0.74790075     0.00850
C1567       C  0.53753222  0.12030208  0.82261618     0.03420
C1568       C  0.50628799  0.10716301  0.80533286    -0.12730
C1569       C  0.49076454  0.07577175  0.78858551     0.00920
C1570       C  0.50479554  0.05680464  0.79667352    -0.11260
C1571       C  0.53860480  0.07314623  0.79508877     0.03410
C1572       C  0.55474049  0.10398519  0.81399382    -0.10680
H1573       H  0.49507876  0.12185497  0.80274071     0.09010
H1574       H  0.49184190  0.03179875  0.78640584     0.06540
H1575       H  0.58031994  0.11518892  0.82000940     0.06380
C1576       C  0.54105652  0.11915286  0.67797423     0.03420
C1577       C  0.50760199  0.10440659  0.68785235    -0.12730
C1578       C  0.49174856  0.07383991  0.70766463     0.00920
C1579       C  0.50795969  0.05638773  0.70636109    -0.11260
C1580       C  0.54119928  0.07449080  0.71430241     0.03410
C1581       C  0.55822251  0.10570799  0.69700447    -0.10680
H1582       H  0.49443733  0.11692762  0.68270014     0.09010
H1583       H  0.49495319  0.03147950  0.71706209     0.06540
H1584       H  0.58420239  0.12000369  0.70049935     0.06380
C1585       C  0.55262821  0.06762219  0.75507919     0.00850
C1586       C  0.56876593  0.05141445  0.75498247     0.00850
C1587       C  0.61853670  0.03457861  0.82552827     0.03420
C1588       C  0.60380448  0.00211696  0.81231948    -0.12730
C1589       C  0.57290309  0.98757953  0.79442179     0.00920
C1590       C  0.55574397  0.00400988  0.79940854    -0.11260
C1591       C  0.57397917  0.03780515  0.79512206     0.03410
C1592       C  0.60490981  0.05331672  0.81305710    -0.10680
H1593       H  0.61687671  0.98916107  0.81360705     0.09010
H1594       H  0.53089951  0.99187850  0.78890645     0.06540
H1595       H  0.61887686  0.07947943  0.81493030     0.06380
C1596       C  0.87008505  0.28967348  0.81962634     0.03420
C1597       C  0.85552002  0.30861565  0.81215476    -0.12730
C1598       C  0.87349637  0.33895183  0.79250364     0.00920
C1599       C  0.90712824  0.35349333  0.79478167    -0.11260
C1600       C  0.91956570  0.33301066  0.78710771     0.03410
C1601       C  0.90129063  0.30103766  0.80186641    -0.10680
H1602       H  0.83051618  0.30010192  0.81941683     0.09010
H1603       H  0.92150442  0.37847622  0.78468365     0.06540
H1604       H  0.91057999  0.28476309  0.79754682     0.06380
O1605       O  0.82909689  0.16483954  0.55656178    -0.85060
O1606       O  0.83432414  0.11174051  0.53453878    -0.82100
C1607       C  0.81487182  0.08909791  0.55882316     0.98400
O1608       O  0.78488239  0.07640737  0.55345901    -0.82140
O1609       O  0.72805725  0.07345797  0.53271053    -0.84780
C1610       C  0.72558935  0.09252985  0.55863536     1.02930
O1611       O  0.74362516  0.12275007  0.55445398    -0.77540
O1612       O  0.79706664  0.18083920  0.53192488    -0.77730
C1613       C  0.81773400  0.18352059  0.55882385     1.02880
O1614       O  0.83357337  0.18154382  0.96767431    -0.85050
O1615       O  0.83362182  0.12585331  0.94634302    -0.82120
C1616       C  0.82189642  0.09590617  0.94035622     0.98420
O1617       O  0.79936565  0.07538567  0.96396111    -0.82150
O1618       O  0.74537607  0.07769451  0.94323035    -0.84750
C1619       C  0.72584932  0.08784471  0.94066202     1.02900
O1620       O  0.72722181  0.10866182  0.96667452    -0.77570
O1621       O  0.78474730  0.16338480  0.94353965    -0.77720
C1622       C  0.81488065  0.18236087  0.94010459     1.02860
Cr1623     Cr  0.82938961  0.14426526  0.00125289     1.93740
Cr1624     Cr  0.76601561  0.07900870  0.99843617     1.93210
Cr1625     Cr  0.76486066  0.14235656  0.99911255     1.39100
O1626       O  0.78679269  0.12177006  0.99962274    -1.22810
C1627       C  0.87205897  0.29042622  0.67875351     0.03420
C1628       C  0.85513132  0.30548532  0.69438483    -0.12730
C1629       C  0.87243540  0.33693647  0.71125996     0.00920
C1630       C  0.90593695  0.35399648  0.70437913    -0.11260
C1631       C  0.92129386  0.33571499  0.70678203     0.03410
C1632       C  0.90526318  0.30494347  0.68807465    -0.10680
H1633       H  0.82898036  0.29216154  0.69578044     0.09010
H1634       H  0.91932305  0.37891756  0.71495507     0.06540
H1635       H  0.91813202  0.29202652  0.68331734     0.06380
C1636       C  0.61942933  0.03605785  0.68105764     0.03420
C1637       C  0.60571950  0.05457959  0.69542229    -0.12730
C1638       C  0.57480339  0.03860629  0.71424965     0.00920
C1639       C  0.55672642  0.00495601  0.70911302    -0.11260
C1640       C  0.57403223  0.98879733  0.71375746     0.03410
C1641       C  0.60517160  0.00379377  0.69582305    -0.10680
H1642       H  0.61910019  0.08073961  0.69362286     0.09010
H1643       H  0.53173831  0.99257234  0.71949160     0.06540
H1644       H  0.61866383  0.99124328  0.69516633     0.06380
C1645       C  0.53883597  0.36928167  0.81956834     0.03420
C1646       C  0.55547707  0.40279129  0.81026697    -0.12730
C1647       C  0.53855600  0.41676805  0.79269426     0.00920
C1648       C  0.50478749  0.39884501  0.79612450    -0.11260
C1649       C  0.49043952  0.36548836  0.78870566     0.03410
C1650       C  0.50694275  0.35030081  0.80399865    -0.10680
H1651       H  0.58120686  0.41777306  0.81492335     0.09010
H1652       H  0.49156514  0.41055326  0.78642304     0.06540
H1653       H  0.49581087  0.32423555  0.80190579     0.06380
C1654       C  0.54049554  0.37228682  0.68008524     0.03420
C1655       C  0.55757290  0.40467417  0.69399677    -0.12730
C1656       C  0.54030147  0.41838919  0.71174399     0.00920
C1657       C  0.50680072  0.40160510  0.70547852    -0.11260
C1658       C  0.49141977  0.36778370  0.70862315     0.03410
C1659       C  0.50771564  0.35296106  0.69130860    -0.10680
H1660       H  0.58373860  0.41804508  0.69366023     0.09010
H1661       H  0.49350681  0.41309845  0.71621536     0.06540
H1662       H  0.49569087  0.32684497  0.68880584     0.06380
O1663       O  0.68241919  0.30031594  0.53119616    -0.85060
O1664       O  0.62667028  0.24418989  0.55190576    -0.82100
C1665       C  0.59690336  0.22725567  0.56024863     0.98400
O1666       O  0.57637596  0.23017923  0.53878857    -0.82140
O1667       O  0.58145047  0.28818122  0.55950353    -0.84780
C1668       C  0.59175481  0.31809946  0.56058427     1.02930
O1669       O  0.61211685  0.33656788  0.53331405    -0.77540
O1670       O  0.66627663  0.33302665  0.55466111    -0.77730
C1671       C  0.68444939  0.32108480  0.55809453     1.02880
O1672       O  0.66561028  0.28831794  0.94185079    -0.85050
O1673       O  0.61202998  0.23032786  0.96286764    -0.82120
C1674       C  0.58802132  0.22678580  0.94200427     0.98420
O1675       O  0.57520065  0.24361195  0.95009697    -0.82150
O1676       O  0.57524579  0.29920455  0.97028603    -0.84750
C1677       C  0.59349898  0.31959373  0.94259699     1.02900
O1678       O  0.62379486  0.33176691  0.94505312    -0.77570
O1679       O  0.68224908  0.33684769  0.96641829    -0.77720
C1680       C  0.68483762  0.31839550  0.93999467     1.02860
Cr1681     Cr  0.64491108  0.26741955  0.99716347     1.93740
Cr1682     Cr  0.58050043  0.26698743  0.00441726     1.93210
Cr1683     Cr  0.64443198  0.33113571  0.99988014     1.39100
O1684       O  0.62318292  0.28825089  0.00042481    -1.22810
C1685       C  0.79083197  0.37461543  0.81955931     0.03420
C1686       C  0.80526933  0.35625242  0.80865052    -0.12730
C1687       C  0.83654230  0.37197368  0.79139055     0.00920
C1688       C  0.85442004  0.40582129  0.79481525    -0.11260
C1689       C  0.83709186  0.42183069  0.78846351     0.03410
C1690       C  0.80570107  0.40706281  0.80565368    -0.10680
H1691       H  0.79185285  0.33011631  0.81133160     0.09010
H1692       H  0.87941677  0.41800204  0.78443266     0.06540
H1693       H  0.79231413  0.41972064  0.80571878     0.06380
C1694       C  0.79088595  0.37457749  0.67948644     0.03420
C1695       C  0.80344925  0.35563859  0.69614692    -0.12730
C1696       C  0.83532918  0.37074518  0.71132843     0.00920
C1697       C  0.85464007  0.40413458  0.70423266    -0.11260
C1698       C  0.83886134  0.42197647  0.70726420     0.03410
C1699       C  0.80839813  0.40823887  0.68817952    -0.10680
H1700       H  0.78811615  0.32965771  0.69928793     0.09010
H1701       H  0.87957090  0.41585358  0.71436268     0.06540
H1702       H  0.79866695  0.42376554  0.68203004     0.06380
C1703       C  0.55173029  0.43668332  0.75283753     0.00850
C1704       C  0.56725424  0.46917584  0.75366154     0.00850
C1705       C  0.76201255  0.36079533  0.84743066     0.00130
C1706       C  0.76576797  0.37477825  0.88782285    -0.11740
C1707       C  0.74125190  0.36093864  0.91843344     0.02370
C1708       C  0.71163403  0.33271184  0.90846435     0.00050
C1709       C  0.70771516  0.31876105  0.86771486    -0.11680
C1710       C  0.73270330  0.33258450  0.83717436     0.02260
H1711       H  0.78863471  0.39598311  0.89612599     0.15240
H1712       H  0.68506201  0.29727799  0.85960510     0.15240
C1713       C  0.72757915  0.31797048  0.79539136     0.36890
C1714       C  0.74813208  0.37528800  0.96058536     0.36790
N1715       N  0.72350611  0.30635746  0.76182742    -0.43450
N1716       N  0.75379006  0.38673845  0.99434256    -0.43450
C1717       C  0.70956342  0.33244712  0.59223777     0.00130
C1718       C  0.71335614  0.35695609  0.62064165    -0.11740
C1719       C  0.73803732  0.36977250  0.65132241     0.02370
C1720       C  0.76075647  0.35908494  0.65293322     0.00050
C1721       C  0.75583158  0.33349686  0.62587753    -0.11680
C1722       C  0.73040404  0.31969267  0.59677049     0.02260
H1723       H  0.69689700  0.36620358  0.61905170     0.15240
H1724       H  0.77248544  0.32446154  0.62655933     0.15240
C1725       C  0.72658481  0.29224643  0.57250347     0.36890
C1726       C  0.73821092  0.39270975  0.68151474     0.36790
N1727       N  0.72350109  0.27007851  0.55352107    -0.43450
N1728       N  0.73814020  0.41113492  0.70549943    -0.43450
C1729       C  0.57895726  0.33196953  0.59178765     0.00130
C1730       C  0.57418835  0.32172368  0.63461033    -0.11740
C1731       C  0.56257379  0.33521058  0.66475973     0.02370
C1732       C  0.55588578  0.35936849  0.65191588     0.00050
C1733       C  0.56098986  0.36980511  0.60942129    -0.11680
C1734       C  0.57210778  0.35620339  0.57926249     0.02260
H1735       H  0.57991944  0.30355285  0.64457295     0.15240
H1736       H  0.55514377  0.38793483  0.59945923     0.15240
C1737       C  0.57451240  0.36637801  0.53526699     0.36890
C1738       C  0.55817582  0.32442253  0.70859633     0.36790
N1739       N  0.57624832  0.37449771  0.00007191    -0.43450
N1740       N  0.55472650  0.31585964  0.74378115    -0.43450
C1741       C  0.57892007  0.33007455  0.90865609     0.00130
C1742       C  0.59858018  0.35078248  0.87569943    -0.11740
C1743       C  0.58604257  0.36249999  0.84456535     0.02370
C1744       C  0.55326406  0.35425649  0.84667128     0.00050
C1745       C  0.53341851  0.33242233  0.87831178    -0.11680
C1746       C  0.54554373  0.32005033  0.90860681     0.02260
H1747       H  0.62390061  0.35786893  0.87409958     0.15240
H1748       H  0.50817747  0.32563793  0.88036764     0.15240
C1749       C  0.52272398  0.29753786  0.93943125     0.36890
C1750       C  0.60708704  0.38178034  0.81010233     0.36790
N1751       N  0.50422307  0.27940254  0.96381832    -0.43450
N1752       N  0.62402707  0.39717125  0.78247260    -0.43450
C1753       C  0.69988873  0.07866437  0.59215481     0.00130
C1754       C  0.67400316  0.04701925  0.58617496    -0.11740
C1755       C  0.64824288  0.03273812  0.61512265     0.02370
C1756       C  0.64799335  0.04991748  0.65186712     0.00050
C1757       C  0.67414297  0.08137582  0.65851291    -0.11680
C1758       C  0.69994056  0.09583773  0.62913917     0.02260
H1759       H  0.67326189  0.03350935  0.55789201     0.15240
H1760       H  0.67444090  0.09475753  0.68668203     0.15240
C1761       C  0.72618438  0.12805853  0.63817322     0.36890
C1762       C  0.62150424  0.00104708  0.60470315     0.36790
N1763       N  0.74722089  0.15388494  0.64539000    -0.43450
N1764       N  0.60011442  0.47566345  0.59635872    -0.43450
C1765       C  0.82947812  0.20972381  0.59148084     0.00130
C1766       C  0.84640392  0.20848743  0.62727879    -0.11740
C1767       C  0.85909830  0.23349806  0.65766515     0.02370
C1768       C  0.85541263  0.26074343  0.65212371     0.00090
C1769       C  0.83741765  0.26132412  0.61746839    -0.11680
C1770       C  0.82448958  0.23640225  0.58738880     0.02260
H1771       H  0.84974267  0.18790603  0.63163027     0.15240
H1772       H  0.83450015  0.28215946  0.61284159     0.15240
C1773       C  0.80746572  0.24002317  0.55189126     0.36890
C1774       C  0.87489986  0.23010518  0.69471212     0.36790
N1775       N  0.79384015  0.24310507  0.52360658    -0.43450
N1776       N  0.88755567  0.22736872  0.72441311    -0.43450
C1777       C  0.85434163  0.25925190  0.84590286     0.00130
C1778       C  0.87468522  0.25238646  0.87027020    -0.11740
C1779       C  0.86244848  0.22637544  0.89860893     0.02370
C1780       C  0.82870992  0.20718607  0.90557444     0.00050
C1781       C  0.80812265  0.21278403  0.87988938    -0.11680
C1782       C  0.82046162  0.23793656  0.84964643     0.02260
H1783       H  0.90068772  0.26788395  0.86809167     0.15240
H1784       H  0.78216415  0.19753022  0.88350413     0.15240
C1785       C  0.79751172  0.24004033  0.82231317     0.36890
C1786       C  0.88552396  0.22003142  0.91934219     0.36790
N1787       N  0.77878241  0.24146598  0.80073221    -0.43450
N1788       N  0.90411622  0.21491146  0.93548010    -0.43450
C1789       C  0.69928052  0.07369683  0.90986990     0.00130
C1790       C  0.66807629  0.06298845  0.92561086    -0.11740
C1791       C  0.64174415  0.05006369  0.89820665     0.02370
C1792       C  0.64649545  0.04814406  0.85408425     0.00050
C1793       C  0.67764094  0.05867286  0.83802323    -0.11680
C1794       C  0.70416055  0.07149462  0.86574153     0.02260
H1795       H  0.66424180  0.06445384  0.95956762     0.15240
H1796       H  0.68119947  0.05717681  0.80402423     0.15240
C1797       C  0.73616657  0.08365240  0.84820023     0.36890
C1798       C  0.60986629  0.03828589  0.91612790     0.36790
N1799       N  0.76190772  0.09363478  0.83431730    -0.43450
N1800       N  0.58426216  0.02866750  0.93028522    -0.43450
C1801       C  0.55815384  0.14886510  0.65087460     0.00130
C1802       C  0.54885496  0.17238195  0.65280809    -0.11740
C1803       C  0.56162227  0.19845051  0.62419306     0.02370
C1804       C  0.58532130  0.20228887  0.59399189     0.00050
C1805       C  0.59595728  0.17994467  0.59335584    -0.11680
C1806       C  0.58217910  0.15302708  0.62056012     0.02260
H1807       H  0.53111867  0.17023687  0.67620189     0.15240
H1808       H  0.61369983  0.18244032  0.56964855     0.15240
C1809       C  0.59153136  0.12897289  0.61402962     0.36890
C1810       C  0.54965669  0.22068293  0.62632071     0.36790
N1811       N  0.59903981  0.10973519  0.60867865    -0.43450
N1812       N  0.53960507  0.23811083  0.62819849    -0.43450
C1813       C  0.55090928  0.15004402  0.84943764     0.00130
C1814       C  0.53018278  0.15195563  0.87992605    -0.11740
C1815       C  0.54146646  0.17754029  0.90902283     0.02370
C1816       C  0.57434770  0.20161542  0.90871373     0.00050
C1817       C  0.59498866  0.20051000  0.87758968    -0.11680
C1818       C  0.58346365  0.17543631  0.84743210     0.02260
H1819       H  0.50513675  0.13273595  0.88204965     0.15240
H1820       H  0.62019450  0.21947144  0.87670842     0.15240
C1821       C  0.60524162  0.17724274  0.81404192     0.36890
C1822       C  0.51920318  0.17746083  0.94044715     0.36790
N1823       N  0.62277981  0.17885096  0.78727306    -0.43450
N1824       N  0.50131735  0.17736232  0.96556015    -0.43450
C1825       C  0.85802961  0.05475907  0.65059920     0.00130
C1826       C  0.82429501  0.04192087  0.65096873    -0.11740
C1827       C  0.80936739  0.05235820  0.62174050     0.02370
C1828       C  0.82839423  0.07728328  0.59227180     0.00050
C1829       C  0.86209060  0.09123251  0.59352326    -0.11680
C1830       C  0.87689796  0.08006049  0.62125756     0.02260
H1831       H  0.80916584  0.02323056  0.67363322     0.15240
H1832       H  0.87729669  0.11041053  0.57134899     0.15240
C1833       C  0.91142926  0.09419296  0.61630131     0.36890
C1834       C  0.77452933  0.03623432  0.62213133     0.36790
N1835       N  0.93910623  0.10588178  0.61223305    -0.43450
N1836       N  0.74659917  0.02305320  0.62225713    -0.43450
C1837       C  0.85874834  0.05605047  0.84681126     0.00130
C1838       C  0.87957854  0.07976339  0.87621229    -0.11740
C1839       C  0.86836627  0.09420922  0.90525598     0.02370
C1840       C  0.83532933  0.08423381  0.90671630     0.00050
C1841       C  0.81441799  0.06120795  0.87712829    -0.11680
C1842       C  0.82585957  0.04775508  0.84656554     0.02260
H1843       H  0.90480971  0.08656377  0.87752447     0.15240
H1844       H  0.78903455  0.05400668  0.87758935     0.15240
C1845       C  0.80346171  0.02688262  0.81455186     0.36890
C1846       C  0.89102177  0.11804658  0.93469495     0.36790
N1847       N  0.78526938  0.01021081  0.78901558    -0.43450
N1848       N  0.90920863  0.13723198  0.95815132    -0.43450
C1849       C  0.84231788  0.85848767  0.25148352     0.00850
C1850       C  0.86063596  0.84451439  0.25171225     0.00850
C1851       C  0.93928438  0.83951569  0.24729283     0.00850
C1852       C  0.97167573  0.85358656  0.24808688     0.00850
C1853       C  0.97249850  0.56945670  0.24778653     0.00850
C1854       C  0.94015098  0.55570435  0.24794417     0.00850
C1855       C  0.87260025  0.54018305  0.31932011     0.03420
C1856       C  0.90487162  0.55862586  0.30445489    -0.12730
C1857       C  0.92069696  0.54300091  0.28807562     0.00920
C1858       C  0.90527412  0.50938945  0.29345860    -0.11260
C1859       C  0.87167295  0.49262843  0.28880165     0.03410
C1860       C  0.85514156  0.50696402  0.30747667    -0.10680
H1861       H  0.91684011  0.58479141  0.30329339     0.09010
H1862       H  0.91811678  0.49736078  0.28299187     0.06540
H1863       H  0.82931741  0.49232591  0.31142901     0.06380
C1864       C  0.87273973  0.53969846  0.17737942     0.03420
C1865       C  0.85541363  0.50654814  0.18918942    -0.12730
C1866       C  0.87203978  0.49246251  0.20743085     0.00920
C1867       C  0.90569193  0.50943643  0.20252613    -0.11260
C1868       C  0.92077832  0.54299647  0.20830356     0.03410
C1869       C  0.90443598  0.55835545  0.19341690    -0.10680
H1870       H  0.82943958  0.49216210  0.18673163     0.09010
H1871       H  0.91863308  0.49751993  0.21259819     0.06540
H1872       H  0.91534210  0.58428376  0.19721125     0.06380
C1873       C  0.85926055  0.97345330  0.24808700     0.00850
C1874       C  0.84428425  0.94089552  0.24790191     0.00850
C1875       C  0.53751475  0.62029940  0.32260822     0.03420
C1876       C  0.50627071  0.60716414  0.30532579    -0.12730
C1877       C  0.49074306  0.57577240  0.28858005     0.00920
C1878       C  0.50476978  0.55680157  0.29666831    -0.11260
C1879       C  0.53857870  0.57313891  0.29508089     0.03410
C1880       C  0.55471890  0.60397839  0.31398461    -0.10680
H1881       H  0.49506454  0.62185892  0.30273396     0.09010
H1882       H  0.49181264  0.53179534  0.28640240     0.06540
H1883       H  0.58029827  0.61517902  0.31999869     0.06380
C1884       C  0.54103300  0.61914351  0.17796502     0.03420
C1885       C  0.50757924  0.60440246  0.18784538    -0.12730
C1886       C  0.49172235  0.57383647  0.20765940     0.00920
C1887       C  0.50792883  0.55637966  0.20635568    -0.11260
C1888       C  0.54116913  0.57447861  0.21429400     0.03410
C1889       C  0.55819561  0.60569472  0.19699403    -0.10680
H1890       H  0.49441804  0.61692711  0.18269383     0.09010
H1891       H  0.49491953  0.53147197  0.21705859     0.06540
H1892       H  0.58417582  0.61998719  0.20048735     0.06380
C1893       C  0.55259818  0.56761043  0.25507068     0.00850
C1894       C  0.56873641  0.55140335  0.25497458     0.00850
C1895       C  0.61851267  0.53458063  0.32552586     0.03420
C1896       C  0.60378630  0.50211916  0.31231771    -0.12730
C1897       C  0.57288497  0.48757636  0.29441897     0.00920
C1898       C  0.55572063  0.50400154  0.29940320    -0.11260
C1899       C  0.57395107  0.53779688  0.29511548     0.03410
C1900       C  0.60488083  0.55331362  0.31305242    -0.10680
H1901       H  0.61686279  0.48916761  0.31360662     0.09010
H1902       H  0.53087627  0.49186613  0.28890037     0.06540
H1903       H  0.61884396  0.57947655  0.31492451     0.06380
C1904       C  0.87008859  0.78967908  0.31962497     0.03420
C1905       C  0.85553444  0.80863186  0.31215884    -0.12730
C1906       C  0.87351693  0.83896505  0.29250283     0.00920
C1907       C  0.90714792  0.85349713  0.29477854    -0.11260
C1908       C  0.91957550  0.83300606  0.28710393     0.03410
C1909       C  0.90129134  0.80103313  0.30186052    -0.10680
H1910       H  0.83053367  0.80012839  0.31942709     0.09010
H1911       H  0.92152988  0.87847917  0.28467934     0.06540
H1912       H  0.91057176  0.78475150  0.29753635     0.06380
O1913       O  0.82907522  0.66483873  0.05656042    -0.85060
O1914       O  0.83430361  0.61174322  0.03452455    -0.82100
C1915       C  0.81485136  0.58910073  0.05880868     0.98400
O1916       O  0.78486192  0.57640937  0.05344345    -0.82140
O1917       O  0.72803660  0.57346216  0.03270227    -0.84780
C1918       C  0.72556863  0.59253252  0.05863009     1.02930
O1919       O  0.74360462  0.62275303  0.05445180    -0.77540
O1920       O  0.79704743  0.68084325  0.03192891    -0.77730
C1921       C  0.81771438  0.68352129  0.05882644     1.02880
O1922       O  0.83355250  0.68155244  0.46767694    -0.85050
O1923       O  0.83360140  0.62586431  0.44633335    -0.82120
C1924       C  0.82187552  0.59591774  0.44034165     0.98420
O1925       O  0.79934321  0.57539456  0.46394225    -0.82150
O1926       O  0.74535376  0.57770583  0.44322014    -0.84750
C1927       C  0.72582761  0.58785699  0.44065564     1.02900
O1928       O  0.72720083  0.60867240  0.46667181    -0.77570
O1929       O  0.78472721  0.66339527  0.44354065    -0.77720
C1930       C  0.81486090  0.68236924  0.44010539     1.02860
Cr1931     Cr  0.82936833  0.64427071  0.50124710     1.93740
Cr1932     Cr  0.76599374  0.57901514  0.49842343     1.93210
Cr1933     Cr  0.76484026  0.64236385  0.49911214     1.39100
O1934       O  0.78677137  0.62177627  0.49961621    -1.22810
C1935       C  0.87206388  0.79042656  0.17875421     0.03420
C1936       C  0.85514351  0.80549347  0.19438398    -0.12730
C1937       C  0.87245439  0.83694431  0.21125790     0.00920
C1938       C  0.90595564  0.85399728  0.20437570    -0.11260
C1939       C  0.92130522  0.83570894  0.20677950     0.03410
C1940       C  0.90526757  0.80493653  0.18807491    -0.10680
H1941       H  0.82899252  0.79217545  0.19578031     0.09010
H1942       H  0.91934685  0.87891842  0.21495038     0.06540
H1943       H  0.91813086  0.79201396  0.18331859     0.06380
C1944       C  0.61940675  0.53605444  0.18105115     0.03420
C1945       C  0.60569269  0.55457284  0.19541441    -0.12730
C1946       C  0.57477658  0.53859621  0.21424246     0.00920
C1947       C  0.55670408  0.50494559  0.20910785    -0.11260
C1948       C  0.57401446  0.48879180  0.21375443     0.03410
C1949       C  0.60515357  0.50379142  0.19581909    -0.10680
H1950       H  0.61907029  0.58073283  0.19361350     0.09010
H1951       H  0.53171589  0.49255885  0.21948623     0.06540
H1952       H  0.61864911  0.49124431  0.19516364     0.06380
C1953       C  0.53884679  0.86928568  0.31956933     0.03420
C1954       C  0.55548717  0.90279518  0.31026757    -0.12730
C1955       C  0.53856542  0.91677091  0.29269392     0.00920
C1956       C  0.50479688  0.89884693  0.29612348    -0.11260
C1957       C  0.49044992  0.86549030  0.28870520     0.03410
C1958       C  0.50695385  0.85030388  0.30399925    -0.10680
H1959       H  0.58121688  0.91777751  0.31492423     0.09010
H1960       H  0.49157387  0.91055440  0.28642175     0.06540
H1961       H  0.49582274  0.82423868  0.30190687     0.06380
C1962       C  0.54050771  0.87229186  0.18008383     0.03420
C1963       C  0.55758392  0.90467938  0.19399514    -0.12730
C1964       C  0.54031149  0.91839312  0.21174337     0.00920
C1965       C  0.50681065  0.90160755  0.20547842    -0.11260
C1966       C  0.49143106  0.86778617  0.20862247     0.03410
C1967       C  0.50772800  0.85296495  0.19130724    -0.10680
H1968       H  0.58374961  0.91805119  0.19365849     0.09010
H1969       H  0.49351573  0.91309980  0.21621537     0.06540
H1970       H  0.49570428  0.82684892  0.18880450     0.06380
O1971       O  0.68241715  0.80029937  0.03119149    -0.85060
O1972       O  0.62666345  0.74417854  0.05190131    -0.82100
C1973       C  0.59689615  0.72724757  0.06024357     0.98400
O1974       O  0.57637104  0.73017459  0.03878327    -0.82140
O1975       O  0.58145452  0.78817988  0.05950325    -0.84780
C1976       C  0.59176316  0.81809897  0.06058585     1.02930
O1977       O  0.61212739  0.83656662  0.03331715    -0.77540
O1978       O  0.66628322  0.83301607  0.05465945    -0.77730
C1979       C  0.68445353  0.82107108  0.05808926     1.02880
O1980       O  0.66560601  0.78830419  0.44184748    -0.85050
O1981       O  0.61202076  0.73031825  0.46286440    -0.82120
C1982       C  0.58801442  0.72678126  0.44200027     0.98420
O1983       O  0.57519804  0.74361129  0.45009370    -0.82150
O1984       O  0.57525204  0.79920768  0.47028874    -0.84750
C1985       C  0.59350644  0.81959560  0.44259964     1.02900
O1986       O  0.62380184  0.83176526  0.44505524    -0.77570
O1987       O  0.68225128  0.83683490  0.46641601    -0.77720
C1988       C  0.68483586  0.81838126  0.43999085     1.02860
Cr1989     Cr  0.64490575  0.76740694  0.49716027     1.93740
Cr1990     Cr  0.58050097  0.76698593  0.50441603     1.93210
Cr1991     Cr  0.64443808  0.83112894  0.49988088     1.39100
O1992       O  0.62318339  0.78824406  0.50042378    -1.22810
C1993       C  0.79082294  0.87459614  0.31954405     0.03420
C1994       C  0.80526464  0.85623699  0.30863588    -0.12730
C1995       C  0.83654039  0.87196333  0.29138401     0.00920
C1996       C  0.85441459  0.90581051  0.29481519    -0.11260
C1997       C  0.83708391  0.92181710  0.28846203     0.03410
C1998       C  0.80569055  0.90704433  0.30564319    -0.10680
H1999       H  0.79185065  0.83010067  0.31131358     0.09010
H2000       H  0.87941227  0.91799450  0.28443593     0.06540
H2001       H  0.79230176  0.91970029  0.30570781     0.06380
C2002       C  0.79088346  0.87455779  0.17948844     0.03420
C2003       C  0.80345632  0.85562455  0.19613671    -0.12730
C2004       C  0.83533530  0.87073845  0.21132152     0.00920
C2005       C  0.85463859  0.90412932  0.20422945    -0.11260
C2006       C  0.83885186  0.92196358  0.20726662     0.03410
C2007       C  0.80838414  0.90821763  0.18819201    -0.10680
H2008       H  0.78813066  0.82964179  0.19926528     0.09010
H2009       H  0.87956952  0.91585333  0.21436041     0.06540
H2010       H  0.79863932  0.92373487  0.18205658     0.06380
C2011       C  0.55174008  0.93668660  0.25283761     0.00850
C2012       C  0.56726876  0.96917931  0.25366306     0.00850
C2013       C  0.76200503  0.86077488  0.34741804     0.00130
C2014       C  0.76576128  0.87476276  0.38780687    -0.11740
C2015       C  0.74124734  0.86092554  0.41842013     0.02370
C2016       C  0.71163036  0.83269547  0.40845746     0.00050
C2017       C  0.70771052  0.81873955  0.36771113    -0.11680
C2018       C  0.73269681  0.83256102  0.33716771     0.02260
H2019       H  0.78862721  0.89597044  0.39610533     0.15240
H2020       H  0.68505799  0.79725415  0.35960591     0.15240
C2021       C  0.72757136  0.81794246  0.29538763     0.36890
C2022       C  0.74812909  0.87528202  0.46056781     0.36790
N2023       N  0.72349710  0.80632581  0.26182595    -0.43450
N2024       N  0.75378847  0.88673859  0.49432138    -0.43450
C2025       C  0.70957044  0.83243157  0.09222900     0.00130
C2026       C  0.71333859  0.85691161  0.12067047    -0.11740
C2027       C  0.73801801  0.86972438  0.15135390     0.02370
C2028       C  0.76075742  0.85906243  0.15293186     0.00050
C2029       C  0.75585885  0.83350270  0.12583877    -0.11680
C2030       C  0.73043618  0.81970280  0.09672428     0.02260
H2031       H  0.69686109  0.86613816  0.11910889     0.15240
H2032       H  0.77253101  0.82448896  0.12649695     0.15240
C2033       C  0.72665238  0.79229125  0.07240588     0.36890
C2034       C  0.73817110  0.89263008  0.18158423     0.36790
N2035       N  0.72359806  0.77015123  0.05338169    -0.43450
N2036       N  0.73808479  0.91102929  0.20560150    -0.43450
C2037       C  0.57896775  0.83197128  0.09178900     0.00130
C2038       C  0.57419800  0.82172573  0.13461179    -0.11740
C2039       C  0.56258471  0.83521428  0.16476054     0.02370
C2040       C  0.55589897  0.85937366  0.15191599     0.00050
C2041       C  0.56100438  0.86981030  0.10942139    -0.11680
C2042       C  0.57212089  0.85620683  0.07926319     0.02260
H2043       H  0.57992717  0.80355363  0.14457491     0.15240
H2044       H  0.55515983  0.88794097  0.09945865     0.15240
C2045       C  0.57452625  0.86638115  0.03526743     0.36890
C2046       C  0.55818540  0.82442613  0.20859721     0.36790
N2047       N  0.57626369  0.87450107  0.50007260    -0.43450
N2048       N  0.55473500  0.81586320  0.24378208    -0.43450
C2049       C  0.57892916  0.83007844  0.40865917     0.00130
C2050       C  0.59859019  0.85078679  0.37570343    -0.11740
C2051       C  0.58605338  0.86250485  0.34456894     0.02370
C2052       C  0.55327483  0.85426135  0.34667364     0.00050
C2053       C  0.53342865  0.83242736  0.37831374    -0.11680
C2054       C  0.54555295  0.82005481  0.40860899     0.02260
H2055       H  0.62391055  0.85787292  0.37410447     0.15240
H2056       H  0.50818765  0.82564318  0.38036880     0.15240
C2057       C  0.52273215  0.79754196  0.43943224     0.36890
C2058       C  0.60709855  0.88178553  0.31010666     0.36790
N2059       N  0.50423044  0.77940635  0.46381834    -0.43450
N2060       N  0.62403915  0.89717666  0.28247750    -0.43450
C2061       C  0.69986767  0.57866528  0.09214962     0.00130
C2062       C  0.67398365  0.54701921  0.08617009    -0.11740
C2063       C  0.64822283  0.53273698  0.11511709     0.02370
C2064       C  0.64797089  0.54991622  0.15186041     0.00050
C2065       C  0.67411884  0.58137547  0.15850596    -0.11680
C2066       C  0.69991722  0.59583829  0.12913333     0.02260
H2067       H  0.67324403  0.53350929  0.05788799     0.15240
H2068       H  0.67441499  0.59475702  0.18667433     0.15240
C2069       C  0.72615962  0.62805966  0.13816811     0.36890
C2070       C  0.62148610  0.50104461  0.10469830     0.36790
N2071       N  0.74719507  0.65388649  0.14538562    -0.43450
N2072       N  0.60013160  0.97566647  0.09636290    -0.43450
C2073       C  0.82946216  0.70972325  0.09148514     0.00130
C2074       C  0.84638778  0.70848286  0.12728073    -0.11740
C2075       C  0.85908867  0.73349375  0.15766643     0.02370
C2076       C  0.85541030  0.76074358  0.15212611     0.00090
C2077       C  0.83741462  0.76132788  0.11747391    -0.11680
C2078       C  0.82447952  0.73640547  0.08739557     0.02260
H2079       H  0.84972167  0.68789830  0.13163053     0.15240
H2080       H  0.83450208  0.78216633  0.11284831     0.15240
C2081       C  0.80745507  0.74002977  0.05190149     0.36890
C2082       C  0.87488916  0.73009657  0.19471149     0.36790
N2083       N  0.79382903  0.74311443  0.02361969    -0.43450
N2084       N  0.88754399  0.72735645  0.22441096    -0.43450
C2085       C  0.85433663  0.75925671  0.34590019     0.00130
C2086       C  0.87467454  0.75237627  0.37025612    -0.11740
C2087       C  0.86243110  0.72636464  0.39859416     0.02370
C2088       C  0.82869287  0.70719152  0.40557267     0.00050
C2089       C  0.80811005  0.71280316  0.37989852    -0.11680
C2090       C  0.82045451  0.73795506  0.34965452     0.02260
H2091       H  0.90067809  0.76786205  0.36806943     0.15240
H2092       H  0.78215098  0.69756089  0.38352308     0.15240
C2093       C  0.79750687  0.74007176  0.32233170     0.36890
C2094       C  0.88549876  0.72000136  0.41931182     0.36790
N2095       N  0.77877915  0.74150775  0.30075954    -0.43450
N2096       N  0.90408414  0.71486533  0.43543719    -0.43450
C2097       C  0.69925852  0.57371146  0.40986383     0.00130
C2098       C  0.66805538  0.56300988  0.42560413    -0.11740
C2099       C  0.64172257  0.55008237  0.39820103     0.02370
C2100       C  0.64647208  0.54815214  0.35408051     0.00050
C2101       C  0.67761652  0.55867572  0.33801995    -0.11680
C2102       C  0.70413688  0.57150139  0.36573681     0.02260
H2103       H  0.66422201  0.56448156  0.45955978     0.15240
H2104       H  0.68117366  0.55717258  0.30402211     0.15240
C2105       C  0.73614200  0.58365583  0.34819430     0.36890
C2106       C  0.60984572  0.53831134  0.41612196     0.36790
N2107       N  0.76188223  0.59363628  0.33430915    -0.43450
N2108       N  0.58424240  0.52869847  0.43027904    -0.43450
C2109       C  0.55813393  0.64885521  0.15086555     0.00130
C2110       C  0.54884090  0.67237636  0.15280049    -0.11740
C2111       C  0.56161267  0.69844574  0.12418683     0.02370
C2112       C  0.58531050  0.70228038  0.09398601     0.00050
C2113       C  0.59594061  0.67993161  0.09334841    -0.11680
C2114       C  0.58215778  0.65301327  0.12055107     0.02260
H2115       H  0.53110585  0.67023418  0.17619437     0.15240
H2116       H  0.61368198  0.68242444  0.06964099     0.15240
C2117       C  0.59150401  0.62895469  0.11401902     0.36890
C2118       C  0.54965259  0.72068266  0.12631525     0.36790
N2119       N  0.59900774  0.60971357  0.10866687    -0.43450
N2120       N  0.53960515  0.73811405  0.12819369    -0.43450
C2121       C  0.55089509  0.65004104  0.34943091     0.00130
C2122       C  0.53017016  0.65195503  0.37991979    -0.11740
C2123       C  0.54145632  0.67753941  0.40901735     0.02370
C2124       C  0.57433839  0.70161204  0.40870835     0.00050
C2125       C  0.59497798  0.70050423  0.37758409    -0.11680
C2126       C  0.58345067  0.67543067  0.34742603     0.02260
H2127       H  0.50512332  0.63273726  0.38204325     0.15240
H2128       H  0.62018467  0.71946354  0.37670331     0.15240
C2129       C  0.60522777  0.67723441  0.31403633     0.36890
C2130       C  0.51919466  0.67746192  0.44044270     0.36790
N2131       N  0.62276532  0.67884046  0.28726790    -0.43450
N2132       N  0.50131017  0.67736493  0.46555668    -0.43450
C2133       C  0.85800842  0.55477176  0.15059904     0.00130
C2134       C  0.82427468  0.54193879  0.15097328    -0.11740
C2135       C  0.80934733  0.55237233  0.12173945     0.02370
C2136       C  0.82837397  0.57728844  0.09225981     0.00050
C2137       C  0.86207009  0.59123313  0.09350628    -0.11680
C2138       C  0.87687693  0.58006498  0.12124770     0.02260
H2139       H  0.80914608  0.52325515  0.17364592     0.15240
H2140       H  0.87727601  0.61040435  0.07132361     0.15240
C2141       C  0.91140740  0.59419187  0.11628980     0.36890
C2142       C  0.77450959  0.53625423  0.12213690     0.36790
N2143       N  0.93908375  0.60587594  0.11222017    -0.43450
N2144       N  0.74657962  0.52307774  0.12226795    -0.43450
C2145       C  0.85874237  0.55607841  0.34680161     0.00130
C2146       C  0.87955743  0.57973577  0.37626909    -0.11740
C2147       C  0.86834154  0.59417450  0.40531856     0.02370
C2148       C  0.83531585  0.58425087  0.40670649     0.00050
C2149       C  0.81442164  0.56128151  0.37705015    -0.11680
C2150       C  0.82587049  0.54783479  0.34648800     0.02260
H2151       H  0.90477601  0.58649447  0.37762638     0.15240
H2152       H  0.78904835  0.55411940  0.37745938     0.15240
C2153       C  0.80350520  0.52702482  0.31440248     0.36890
C2154       C  0.89097618  0.61794684  0.43483864     0.36790
N2155       N  0.78534275  0.51040484  0.28880426    -0.43450
N2156       N  0.90914565  0.63707882  0.45836249    -0.43450
C2157       C  0.84231737  0.85848592  0.75148422     0.00850
C2158       C  0.86063568  0.84451288  0.75171287     0.00850
C2159       C  0.93928424  0.83951431  0.74729347     0.00850
C2160       C  0.97167559  0.85358507  0.74808741     0.00850
C2161       C  0.97249927  0.56945833  0.74778613     0.00850
C2162       C  0.94015185  0.55570681  0.74794431     0.00850
C2163       C  0.87260135  0.54018462  0.81932041     0.03420
C2164       C  0.90487284  0.55862761  0.80445584    -0.12730
C2165       C  0.92069817  0.54300291  0.78807582     0.00920
C2166       C  0.90527526  0.50939135  0.79345757    -0.11260
C2167       C  0.87167415  0.49263053  0.78880023     0.03410
C2168       C  0.85514264  0.50696585  0.80747575    -0.10680
H2169       H  0.91684142  0.58479320  0.80329520     0.09010
H2170       H  0.91811793  0.49736286  0.78299011     0.06540
H2171       H  0.82931845  0.49232777  0.81142752     0.06380
C2172       C  0.87273940  0.53970122  0.67738094     0.03420
C2173       C  0.85541431  0.50655020  0.68918833    -0.12730
C2174       C  0.87204095  0.49246492  0.70742923     0.00920
C2175       C  0.90569310  0.50943977  0.70252485    -0.11260
C2176       C  0.92077860  0.54299958  0.70830413     0.03410
C2177       C  0.90443515  0.55835820  0.69342017    -0.10680
H2178       H  0.82944045  0.49216301  0.68672976     0.09010
H2179       H  0.91863476  0.49752357  0.71259602     0.06540
H2180       H  0.91533968  0.58428592  0.69721939     0.06380
C2181       C  0.85926025  0.97345178  0.74808757     0.00850
C2182       C  0.84428422  0.94089402  0.74790258     0.00850
C2183       C  0.53751477  0.62029950  0.82260896     0.03420
C2184       C  0.50627081  0.60716426  0.80532629    -0.12730
C2185       C  0.49074329  0.57577258  0.78858037     0.00920
C2186       C  0.50477003  0.55680178  0.79666869    -0.11260
C2187       C  0.53857897  0.57313918  0.79508156     0.03410
C2188       C  0.55471901  0.60397857  0.81398550    -0.10680
H2189       H  0.49506462  0.62185902  0.80273441     0.09010
H2190       H  0.49181297  0.53179557  0.78640270     0.06540
H2191       H  0.58029835  0.61517923  0.81999982     0.06380
C2192       C  0.54103343  0.61914380  0.67796521     0.03420
C2193       C  0.50757965  0.60440270  0.68784552    -0.12730
C2194       C  0.49172281  0.57383676  0.70765969     0.00920
C2195       C  0.50792938  0.55638004  0.70635616    -0.11260
C2196       C  0.54116964  0.57447911  0.71429464     0.03410
C2197       C  0.55819609  0.60569517  0.69699452    -0.10680
H2198       H  0.49441838  0.61692726  0.68269376     0.09010
H2199       H  0.49492012  0.53147235  0.71705905     0.06540
H2200       H  0.58417629  0.61998771  0.70048790     0.06380
C2201       C  0.55259870  0.56761099  0.75507139     0.00850
C2202       C  0.56873751  0.55140449  0.75497529     0.00850
C2203       C  0.61851384  0.53458155  0.82552639     0.03420
C2204       C  0.60378744  0.50212013  0.81231799    -0.12730
C2205       C  0.57288612  0.48757743  0.79441927     0.00920
C2206       C  0.55572181  0.50400262  0.79940373    -0.11260
C2207       C  0.57395227  0.53779798  0.79511612     0.03410
C2208       C  0.60488206  0.55331463  0.81305306    -0.10680
H2209       H  0.61686388  0.48916852  0.81360680     0.09010
H2210       H  0.53087743  0.49186726  0.78890095     0.06540
H2211       H  0.61884520  0.57947756  0.81492533     0.06380
C2212       C  0.87008858  0.78967766  0.81962566     0.03420
C2213       C  0.85553423  0.80863021  0.81215926    -0.12730
C2214       C  0.87351666  0.83896346  0.79250337     0.00920
C2215       C  0.90714767  0.85349566  0.79477918    -0.11260
C2216       C  0.91957541  0.83300471  0.78710464     0.03410
C2217       C  0.90129140  0.80103182  0.80186141    -0.10680
H2218       H  0.83053335  0.80012645  0.81942723     0.09010
H2219       H  0.92152957  0.87847772  0.78468006     0.06540
H2220       H  0.91057200  0.78475030  0.79753763     0.06380
O2221       O  0.82907507  0.66483890  0.55655808    -0.85060
O2222       O  0.83430264  0.61174293  0.53452254    -0.82100
C2223       C  0.81485019  0.58910132  0.55880764     0.98400
O2224       O  0.78486081  0.57641015  0.55344212    -0.82140
O2225       O  0.72803579  0.57346298  0.53270011    -0.84780
C2226       C  0.72556819  0.59253345  0.55862812     1.02930
O2227       O  0.74360445  0.62275391  0.55444982    -0.77540
O2228       O  0.79704753  0.68084384  0.53192686    -0.77730
C2229       C  0.81771439  0.68352157  0.55882437     1.02880
O2230       O  0.83355258  0.68155234  0.96767939    -0.85050
O2231       O  0.83360225  0.62586469  0.94633553    -0.82120
C2232       C  0.82187643  0.59591818  0.94034326     0.98420
O2233       O  0.79934406  0.57539470  0.96394350    -0.82150
O2234       O  0.74535430  0.57770543  0.94322200    -0.84750
C2235       C  0.72582801  0.58785641  0.94065759     1.02900
O2236       O  0.72720105  0.60867159  0.96667396    -0.77570
O2237       O  0.78472734  0.66339464  0.94354265    -0.77720
C2238       C  0.81486102  0.68236881  0.94010751     1.02860
Cr2239     Cr  0.82936881  0.64427074  0.00124937     1.93740
Cr2240     Cr  0.76599454  0.57901472  0.99842514     1.93210
Cr2241     Cr  0.76484042  0.64236314  0.99911419     1.39100
O2242       O  0.78677185  0.62177588  0.99961834    -1.22810
C2243       C  0.87206378  0.79042548  0.67875426     0.03420
C2244       C  0.85514338  0.80549232  0.69438420    -0.12730
C2245       C  0.87245423  0.83694304  0.71125846     0.00920
C2246       C  0.90595550  0.85399601  0.70437644    -0.11260
C2247       C  0.92130504  0.83570763  0.70678017     0.03410
C2248       C  0.90526741  0.80493530  0.68807531    -0.10680
H2249       H  0.82899239  0.79217434  0.69578031     0.09010
H2250       H  0.91934670  0.87891712  0.71495125     0.06540
H2251       H  0.91813070  0.79201274  0.68331888     0.06380
C2252       C  0.61940768  0.53605568  0.68105129     0.03420
C2253       C  0.60569373  0.55457409  0.69541493    -0.12730
C2254       C  0.57477768  0.53859742  0.71424313     0.00920
C2255       C  0.55670514  0.50494681  0.70910837    -0.11260
C2256       C  0.57401551  0.48879301  0.71375473     0.03410
C2257       C  0.60515458  0.50379265  0.69581922    -0.10680
H2258       H  0.61907131  0.58073407  0.69361403     0.09010
H2259       H  0.53171697  0.49256007  0.71948682     0.06540
H2260       H  0.61865009  0.49124552  0.69516346     0.06380
C2261       C  0.53884604  0.86928465  0.81956903     0.03420
C2262       C  0.55548633  0.90279416  0.81026739    -0.12730
C2263       C  0.53856452  0.91676982  0.79269377     0.00920
C2264       C  0.50479599  0.89884576  0.79612328    -0.11260
C2265       C  0.49044913  0.86548915  0.78870494     0.03410
C2266       C  0.50695312  0.85030279  0.80399892    -0.10680
H2267       H  0.58121603  0.91777654  0.81492409     0.09010
H2268       H  0.49157293  0.91055318  0.78642154     0.06540
H2269       H  0.49582208  0.82423760  0.80190649     0.06380
C2270       C  0.54050714  0.87229088  0.68008375     0.03420
C2271       C  0.55758324  0.90467842  0.69399508    -0.12730
C2272       C  0.54031071  0.91839207  0.71174323     0.00920
C2273       C  0.50680987  0.90160641  0.70547817    -0.11260
C2274       C  0.49143037  0.86778504  0.70862226     0.03410
C2275       C  0.50772742  0.85296390  0.69130713    -0.10680
H2276       H  0.58374892  0.91805030  0.69365847     0.09010
H2277       H  0.49351488  0.91309860  0.71621508     0.06540
H2278       H  0.49570377  0.82684787  0.68880440     0.06380
O2279       O  0.68241747  0.80029923  0.53119112    -0.85060
O2280       O  0.62666372  0.74417827  0.55190049    -0.82100
C2281       C  0.59689643  0.72724736  0.56024278     0.98400
O2282       O  0.57637133  0.73017442  0.53878250    -0.82140
O2283       O  0.58145465  0.78817958  0.55950278    -0.84780
C2284       C  0.59176327  0.81809865  0.56058565     1.02930
O2285       O  0.61212762  0.83656645  0.53331718    -0.77540
O2286       O  0.66628337  0.83301571  0.55465949    -0.77730
C2287       C  0.68445367  0.82107068  0.55808920     1.02880
O2288       O  0.66560551  0.78830386  0.94184798    -0.85050
O2289       O  0.61202027  0.73031812  0.96286536    -0.82120
C2290       C  0.58801398  0.72678116  0.94200113     0.98420
O2291       O  0.57519762  0.74361122  0.95009445    -0.82150
O2292       O  0.57525166  0.79920765  0.97028921    -0.84750
C2293       C  0.59350597  0.81959529  0.94259978     1.02900
O2294       O  0.62380137  0.83176492  0.94505522    -0.77570
O2295       O  0.68225086  0.83683473  0.96641599    -0.77720
C2296       C  0.68483541  0.81838090  0.93999112     1.02860
Cr2297     Cr  0.64490537  0.76740692  0.99716093     1.93740
Cr2298     Cr  0.58050064  0.76698602  0.00441664     1.93210
Cr2299     Cr  0.64443776  0.83112896  0.99988088     1.39100
O2300       O  0.62318305  0.78824409  0.00042422    -1.22810
C2301       C  0.79082277  0.87459489  0.81954480     0.03420
C2302       C  0.80526424  0.85623553  0.80863658    -0.12730
C2303       C  0.83653999  0.87196167  0.79138470     0.00920
C2304       C  0.85441439  0.90580886  0.79481585    -0.11260
C2305       C  0.83708390  0.92181566  0.78846275     0.03410
C2306       C  0.80569058  0.90704309  0.80564399    -0.10680
H2307       H  0.79185007  0.83009921  0.81131425     0.09010
H2308       H  0.87941205  0.91799269  0.78443655     0.06540
H2309       H  0.79230195  0.91969921  0.80570866     0.06380
C2310       C  0.79088313  0.87455639  0.67948913     0.03420
C2311       C  0.80345581  0.85562300  0.69613747    -0.12730
C2312       C  0.83533479  0.87073675  0.71132225     0.00920
C2313       C  0.85463825  0.90412759  0.70423012    -0.11260
C2314       C  0.83885171  0.92196202  0.70726730     0.03410
C2315       C  0.80838400  0.90821623  0.68819268    -0.10680
H2316       H  0.78813001  0.82964026  0.69926608     0.09010
H2317       H  0.87956919  0.91585147  0.71436104     0.06540
H2318       H  0.79863934  0.92373361  0.68205722     0.06380
C2319       C  0.55173917  0.93668554  0.75283750     0.00850
C2320       C  0.56726764  0.96917824  0.75366301     0.00850
C2321       C  0.76200485  0.86077381  0.84741873     0.00130
C2322       C  0.76576118  0.87476165  0.88780760    -0.11740
C2323       C  0.74124714  0.86092464  0.91842072     0.02370
C2324       C  0.71162999  0.83269486  0.90845787     0.00050
C2325       C  0.70771007  0.81873896  0.86771150    -0.11680
C2326       C  0.73269645  0.83256022  0.83716821     0.02260
H2327       H  0.78862724  0.89596913  0.89610619     0.15240
H2328       H  0.68505739  0.79725377  0.85960617     0.15240
C2329       C  0.72757093  0.81794174  0.79538807     0.36890
C2330       C  0.74812891  0.87528102  0.96056847     0.36790
N2331       N  0.72349661  0.80632516  0.76182634    -0.43450
N2332       N  0.75378830  0.88673750  0.99432209    -0.43450
C2333       C  0.70957038  0.83243087  0.59222921     0.00130
C2334       C  0.71333867  0.85691097  0.62067065    -0.11740
C2335       C  0.73801795  0.86972347  0.65135429     0.02370
C2336       C  0.76075712  0.85906121  0.65293246     0.00050
C2337       C  0.75585834  0.83350136  0.62583946    -0.11680
C2338       C  0.73043577  0.81970171  0.59672479     0.02260
H2339       H  0.69686141  0.86613779  0.61910889     0.15240
H2340       H  0.77253026  0.82448733  0.62649783     0.15240
C2341       C  0.72665166  0.79228997  0.57240654     0.36890
C2342       C  0.73817116  0.89262924  0.68158460     0.36790
N2343       N  0.72359708  0.77014980  0.55338249    -0.43450
N2344       N  0.73808494  0.91102850  0.70560186    -0.43450
C2345       C  0.57896768  0.83197078  0.59178884     0.00130
C2346       C  0.57419783  0.82172511  0.63461159    -0.11740
C2347       C  0.56258436  0.83521347  0.66476035     0.02370
C2348       C  0.55589851  0.85937280  0.65191587     0.00050
C2349       C  0.56100402  0.86980956  0.60942133    -0.11680
C2350       C  0.57212072  0.85620628  0.57926311     0.02260
H2351       H  0.57992708  0.80355305  0.64457466     0.15240
H2352       H  0.55515941  0.88794020  0.59945863     0.15240
C2353       C  0.57452622  0.86638076  0.53526741     0.36890
C2354       C  0.55818500  0.82442523  0.70859697     0.36790
N2355       N  0.57626361  0.87450133  0.00007258    -0.43450
N2356       N  0.55473456  0.81586222  0.74378182    -0.43450
C2357       C  0.57892860  0.83007785  0.90865913     0.00130
C2358       C  0.59858958  0.85078614  0.87570332    -0.11740
C2359       C  0.58605270  0.86250402  0.84456870     0.02370
C2360       C  0.55327412  0.85426039  0.84667336     0.00050
C2361       C  0.53342797  0.83242641  0.87831348    -0.11680
C2362       C  0.54555234  0.82005404  0.90860886     0.02260
H2363       H  0.62390998  0.85787238  0.87410442     0.15240
H2364       H  0.50818693  0.82564213  0.88036847     0.15240
C2365       C  0.52273158  0.79754116  0.93943210     0.36890
C2366       C  0.60709783  0.88178466  0.81010637     0.36790
N2367       N  0.50422989  0.77940553  0.96381820    -0.43450
N2368       N  0.62403839  0.89717576  0.78247717    -0.43450
C2369       C  0.69986749  0.57866639  0.59214801     0.00130
C2370       C  0.67398339  0.54702031  0.58616885    -0.11740
C2371       C  0.64822294  0.53273812  0.61511642     0.02370
C2372       C  0.64797147  0.54991741  0.65185995     0.00050
C2373       C  0.67411945  0.58137672  0.65850504    -0.11680
C2374       C  0.69991745  0.59583950  0.62913182     0.02260
H2375       H  0.67324343  0.53351031  0.55788666     0.15240
H2376       H  0.67441593  0.59475834  0.68667350     0.15240
C2377       C  0.72615989  0.62806095  0.63816616     0.36890
C2378       C  0.62148609  0.50104573  0.60469803     0.36790
N2379       N  0.74719536  0.65388784  0.64538331    -0.43450
N2380       N  0.60013116  0.97566588  0.59636287    -0.43450
C2381       C  0.82946217  0.70972320  0.59148354     0.00130
C2382       C  0.84638774  0.70848239  0.62727892    -0.11740
C2383       C  0.85908861  0.73349292  0.65766512     0.02370
C2384       C  0.85541028  0.76074283  0.65212553     0.00090
C2385       C  0.83741464  0.76132755  0.61747351    -0.11680
C2386       C  0.82447954  0.73640547  0.58739470     0.02260
H2387       H  0.84972160  0.68789776  0.63162818     0.15240
H2388       H  0.83450212  0.78216605  0.61284847     0.15240
C2389       C  0.80745504  0.74003012  0.55190097     0.36890
C2390       C  0.87488898  0.73009525  0.69470996     0.36790
N2391       N  0.79382895  0.74311507  0.52361948    -0.43450
N2392       N  0.88754372  0.72735474  0.72440924    -0.43450
C2393       C  0.85433678  0.75925548  0.84590119     0.00130
C2394       C  0.87467474  0.75237579  0.87025818    -0.11740
C2395       C  0.86243135  0.72636448  0.89859673     0.02370
C2396       C  0.82869305  0.70719088  0.90557453     0.00050
C2397       C  0.80811023  0.71280176  0.87989926    -0.11680
C2398       C  0.82045472  0.73795340  0.84965484     0.02260
H2399       H  0.90067826  0.76786195  0.86807191     0.15240
H2400       H  0.78215116  0.69755910  0.88352322     0.15240
C2401       C  0.79750727  0.74006940  0.82233082     0.36890
C2402       C  0.88549917  0.72000209  0.91931569     0.36790
N2403       N  0.77877976  0.74150487  0.80075760    -0.43450
N2404       N  0.90408470  0.71486678  0.93544212    -0.43450
C2405       C  0.69925910  0.57371111  0.90986545     0.00130
C2406       C  0.66805588  0.56300956  0.92560539    -0.11740
C2407       C  0.64172328  0.55008255  0.89820192     0.02370
C2408       C  0.64647308  0.54815278  0.85408138     0.00050
C2409       C  0.67761760  0.55867629  0.83802118    -0.11680
C2410       C  0.70413775  0.57150148  0.86573840     0.02260
H2411       H  0.66422227  0.56448092  0.95956104     0.15240
H2412       H  0.68117498  0.55717346  0.80402333     0.15240
C2413       C  0.73614296  0.58365592  0.84819623     0.36890
C2414       C  0.60984633  0.53831153  0.91612251     0.36790
N2415       N  0.76188327  0.59363638  0.83431135    -0.43450
N2416       N  0.58424293  0.52869866  0.93027931    -0.43450
C2417       C  0.55813431  0.64885537  0.65086547     0.00130
C2418       C  0.54884114  0.67237643  0.65279997    -0.11740
C2419       C  0.56161283  0.69844564  0.62418605     0.02370
C2420       C  0.58531074  0.70228024  0.59398537     0.00050
C2421       C  0.59594099  0.67993157  0.59334819    -0.11680
C2422       C  0.58215823  0.65301338  0.62055113     0.02260
H2423       H  0.53110603  0.67023430  0.67619373     0.15240
H2424       H  0.61368243  0.68242436  0.56964091     0.15240
C2425       C  0.59150463  0.62895488  0.61401953     0.36890
C2426       C  0.54965260  0.72068245  0.62631409     0.36790
N2427       N  0.59900849  0.60971382  0.60866774    -0.43450
N2428       N  0.53960501  0.73811372  0.62819225    -0.43450
C2429       C  0.55089497  0.65004109  0.84943169     0.00130
C2430       C  0.53016994  0.65195497  0.87992051    -0.11740
C2431       C  0.54145600  0.67753930  0.90901810     0.02370
C2432       C  0.57433804  0.70161198  0.90870919     0.00050
C2433       C  0.59497772  0.70050429  0.87758498    -0.11680
C2434       C  0.58345052  0.67543077  0.84742689     0.02260
H2435       H  0.50512311  0.63273715  0.88204387     0.15240
H2436       H  0.62018439  0.71946365  0.87670428     0.15240
C2437       C  0.60522771  0.67723460  0.81403726     0.36890
C2438       C  0.51919425  0.67746173  0.94044341     0.36790
N2439       N  0.62276532  0.67884072  0.78726889    -0.43450
N2440       N  0.50130970  0.67736468  0.96555733    -0.43450
C2441       C  0.85800737  0.55477493  0.65060195     0.00130
C2442       C  0.82427264  0.54193623  0.65096871    -0.11740
C2443       C  0.80934526  0.55236867  0.62173342     0.02370
C2444       C  0.82837246  0.57729016  0.59226075     0.00050
C2445       C  0.86206907  0.59124145  0.59351606    -0.11680
C2446       C  0.87687636  0.58007410  0.62125801     0.02260
H2447       H  0.80914302  0.52324849  0.67363592     0.15240
H2448       H  0.87727546  0.61041749  0.57133953     0.15240
C2449       C  0.91140827  0.59420865  0.61630752     0.36890
C2450       C  0.77450708  0.53624302  0.62212093     0.36790
N2451       N  0.93908573  0.60589914  0.61224361    -0.43450
N2452       N  0.74657685  0.52306040  0.62224387    -0.43450
C2453       C  0.85874341  0.55607965  0.84680240     0.00130
C2454       C  0.87955835  0.57973647  0.87627054    -0.11740
C2455       C  0.86834245  0.59417500  0.90532026     0.02370
C2456       C  0.83531684  0.58425168  0.90670780     0.00050
C2457       C  0.81442274  0.56128284  0.87705087    -0.11680
C2458       C  0.82587163  0.54783636  0.84648844     0.02260
H2459       H  0.90477685  0.58649488  0.87762812     0.15240
H2460       H  0.78904951  0.55412095  0.87745987     0.15240
C2461       C  0.80350655  0.52702699  0.81440235     0.36890
C2462       C  0.89097696  0.61794680  0.93484098     0.36790
N2463       N  0.78534425  0.51040751  0.78880364    -0.43450
N2464       N  0.90914632  0.63707837  0.95836534    -0.43450
loop_ 
_geom_bond_atom_site_label_1 
_geom_bond_atom_site_label_2 
_geom_bond_distance 
_geom_bond_site_symmetry_2 
_ccdc_geom_bond_type 
C1            C2   1.347       .  D
C1          C147   1.490       .  S
C1          C156   1.499       .  S
C2           C58   1.504       .  S
C2           C89   1.499       .  S
C3            C4   1.346       .  D
C3           C60   1.493       .  S
C3           C91   1.497       .  S
C4         C1341   1.498       .  S
C4         C1350   1.491       .  S
C5            C6   1.345       .  D
C5         C1261   1.495       .  S
C5         C1270   1.503       .  S
C6            C9   1.494       .  S
C6           C20   1.488       .  S
C7            C8   1.416       .  A
C7           C12   1.423       .  A
C7          C297   1.503       .  S
C8            C9   1.402       .  A
C8           H13   1.084       .  S
C9           C10   1.401       .  A
C10          C11   1.400   1_545  A
C10          H14   1.083   1_545  S
C11         C641   1.507       .  S
C11          C12   1.408   1_565  A
C12          H15   1.078   1_545  S
C16          C17   1.419       .  A
C16          C21   1.414       .  A
C16         C285   1.501       .  S
C17          C18   1.404   1_545  A
C17          H22   1.081   1_545  S
C18         C641   1.502       .  S
C18          C19   1.401   1_565  A
C19          C20   1.402       .  A
C19          H23   1.083   1_545  S
C20          C21   1.401       .  A
C21          H24   1.083       .  S
C25          C26   1.347       .  D
C25         C627   1.507       .  S
C25         C634   1.502       .  S
C26         C149   1.499       .  S
C26         C158   1.505       .  S
C27          C28   1.412       .  A
C27          C32   1.419       .  A
C27         C273   1.490       .  S
C28          C29   1.399   1_455  A
C28          H33   1.084   1_455  S
C29        C1237   1.495       .  S
C29          C30   1.402   1_655  A
C30          C31   1.401       .  A
C30          H34   1.083   1_455  S
C31          C45   1.501       .  S
C31          C32   1.406       .  A
C32          H35   1.081       .  S
C36          C37   1.421       .  A
C36          C41   1.412       .  A
C36         C261   1.495       .  S
C37          C38   1.407   1_455  A
C37          H42   1.081   1_455  S
C38        C1237   1.503       .  S
C38          C39   1.401   1_655  A
C39          C40   1.402       .  A
C39          H43   1.083   1_455  S
C40          C45   1.494       .  S
C40          C41   1.400       .  A
C41          H44   1.084       .  S
C45          C46   1.345       .  D
C46          C51   1.497       .  S
C46          C98   1.501       .  S
C47          C48   1.406       .  A
C47          C52   1.409       .  A
C47         C252   1.468       .  S
C48          C49   1.402   1_545  A
C48          H53   1.083   1_545  S
C49         C780   1.494       .  S
C49          C50   1.405   1_565  A
C50          C51   1.404       .  A
C50          H54   1.082   1_545  S
C51          C52   1.402       .  A
C52          H55   1.084       .  S
C56          C57   1.418       .  A
C56          C61   1.419       .  A
C56         C237   1.502       .  S
C57          C58   1.402       .  A
C57          H62   1.077       .  S
C58          C59   1.400       .  A
C59          C60   1.401       .  A
C59          H63   1.083       .  S
C60          C61   1.403       .  A
C61          H64   1.083       .  S
O65          C73   1.263       .  A
O65        Cr391   1.992       .  S
O66          C67   1.264       .  A
O66        Cr391   1.989       .  S
C67         C288   1.491       .  S
C67          O68   1.260       .  A
O68        Cr392   1.984   1_554  S
O69          C70   1.268       .  A
O69        Cr392   2.005   1_554  S
C70         C213   1.490       .  S
C70          O71   1.263       .  A
O71        Cr393   1.984   1_554  S
O72          C73   1.262       .  A
O72        Cr393   1.993   1_554  S
C73         C225   1.490       .  S
O74          C82   1.264       .  A
O74         Cr83   1.995       .  S
O75          C76   1.262       .  A
O75         Cr83   1.984       .  S
C76         C300   1.478       .  S
C76          O77   1.265       .  A
O77         Cr84   2.002       .  S
O78          C79   1.258       .  A
O78         Cr84   1.983       .  S
C79         C249   1.468       .  S
C79          O80   1.261       .  A
O80         Cr85   1.992       .  S
O81          C82   1.265       .  A
O81         Cr85   1.991       .  S
C82         C240   1.491       .  S
Cr83        O373   1.992       .  S
Cr83        O374   1.989       .  S
Cr83         O86   1.766       .  S
Cr84        O376   1.984       .  S
Cr84        O377   2.005       .  S
Cr84         O86   1.768       .  S
Cr85        O379   1.984       .  S
Cr85        O380   1.993       .  S
Cr85         O86   1.769       .  S
C87          C88   1.415       .  A
C87          C92   1.412       .  A
C87         C228   1.486       .  S
C88          C89   1.405       .  A
C88          H93   1.084       .  S
C89          C90   1.403       .  A
C90          C91   1.403       .  A
C90          H94   1.083       .  S
C91          C92   1.401       .  A
C92          H95   1.082       .  S
C96          C97   1.416       .  A
C96         C101   1.415       .  A
C96         C216   1.490       .  S
C97          C98   1.406       .  A
C97         H102   1.083       .  S
C98          C99   1.401       .  A
C99         C100   1.401   1_545  A
C99         H103   1.083   1_545  S
C100        C780   1.497       .  S
C100        C101   1.403   1_565  A
C101        H104   1.083   1_545  S
C105        C106   1.415       .  A
C105        C110   1.417       .  A
C105        C204   1.494       .  S
C106        C107   1.403       .  A
C106        H111   1.081       .  S
C107        C163   1.500       .  S
C107        C108   1.402       .  A
C108        C109   1.403   1_455  A
C108        H112   1.083   1_455  S
C109       C1236   1.498       .  S
C109        C110   1.405   1_655  A
C110        H113   1.084   1_455  S
C114        C115   1.408       .  A
C114        C119   1.406       .  A
C114        C192   1.467       .  S
C115        C116   1.402       .  A
C115        H120   1.084       .  S
C116        C163   1.496       .  S
C116        C117   1.403       .  A
C117        C118   1.404   1_455  A
C117        H121   1.083   1_455  S
C118       C1236   1.491       .  S
C118        C119   1.400   1_655  A
C119        H122   1.084   1_455  S
O123        C131   1.267       .  A
O123       Cr449   2.002   1_554  S
O124        C125   1.262       .  A
O124       Cr449   1.986   1_554  S
C125        C264   1.477       .  S
C125        O126   1.261       .  A
O126       Cr450   1.990       .  S
O127        C128   1.258       .  A
O127       Cr450   1.986       .  S
C128        C189   1.473       .  S
C128        O129   1.259       .  A
O129       Cr451   1.987   1_554  S
O130        C131   1.267       .  A
O130       Cr451   1.994   1_554  S
C131        C177   1.498       .  S
O132        C140   1.260       .  A
O132       Cr141   1.991       .  S
O133        C134   1.263       .  A
O133       Cr141   1.994       .  S
C134        C276   1.473       .  S
C134        O135   1.261       .  A
O135       Cr142   1.978       .  S
O136        C137   1.265       .  A
O136       Cr142   1.998       .  S
C137        C201   1.496       .  S
C137        O138   1.267       .  A
O138       Cr143   1.995       .  S
O139        C140   1.259       .  A
O139       Cr143   1.984       .  S
C140        C168   1.480       .  S
Cr141       O431   2.002       .  S
Cr141       O432   1.986       .  S
Cr141       O144   1.772       .  S
Cr142       O434   1.990       .  S
Cr142       O435   1.986       .  S
Cr142       O144   1.771       .  S
Cr143       O437   1.987       .  S
Cr143       O438   1.994       .  S
Cr143       O144   1.773       .  S
C145        C146   1.407       .  A
C145        C150   1.412       .  A
C145        C165   1.474       .  S
C146        C147   1.400       .  A
C146        H151   1.084       .  S
C147        C148   1.404       .  A
C148        C149   1.402       .  A
C148        H152   1.083       .  S
C149        C150   1.404       .  A
C150        H153   1.083       .  S
C154        C155   1.421       .  A
C154        C159   1.418       .  A
C154        C180   1.504       .  S
C155        C156   1.407       .  A
C155        H160   1.084       .  S
C156        C157   1.403       .  A
C157        C158   1.402       .  A
C157        H161   1.083       .  S
C158        C159   1.402       .  A
C159        H162   1.078       .  S
C163        C164   1.344       .  D
C164        C665   1.494       .  S
C164        C716   1.497       .  S
C165        C166   1.398       .  A
C165        C170   1.411       .  A
C166        C167   1.393       .  A
C166        H171   1.086       .  S
C167        C168   1.417       .  A
C167        C174   1.446       .  S
C168        C169   1.406       .  A
C169        C170   1.405       .  A
C169        H172   1.085       .  S
C170        C173   1.444       .  S
C173        N175   1.157       .  T
C174        N176   1.157       .  T
C177        C178   1.407       .  A
C177        C182   1.419       .  A
C178        C179   1.407       .  A
C178        H183   1.085       .  S
C179        C180   1.421       .  A
C179        C186   1.443       .  S
C180        C181   1.406       .  A
C181        C182   1.398       .  A
C181        H184   1.084       .  S
C182        C185   1.445       .  S
C185        N187   1.158       .  T
C186        N188   1.158       .  T
C189        C190   1.405       .  A
C189        C194   1.414       .  A
C190        C191   1.403       .  A
C190        H195   1.084       .  S
C191        C192   1.408       .  A
C191        C198   1.443       .  S
C192        C193   1.398       .  A
C193        C194   1.392       .  A
C193        H196   1.086       .  S
C194        C197   1.446       .  S
C197        N507   1.157       .  T
C198        N200   1.157       .  T
N199        C505   1.157       .  T
C201        C202   1.408       .  A
C201        C206   1.421       .  A
C202        C203   1.407       .  A
C202        H207   1.085       .  S
C203        C204   1.416       .  A
C203        C210   1.443       .  S
C204        C205   1.402       .  A
C205        C206   1.396       .  A
C205        H208   1.085       .  S
C206        C209   1.446       .  S
C209        N211   1.158       .  T
C210        N212   1.157       .  T
C213        C214   1.405       .  A
C213        C218   1.417       .  A
C214        C215   1.396       .  A
C214        H219   1.084       .  S
C215        C216   1.415       .  A
C215        C222   1.446       .  S
C216        C217   1.407       .  A
C217        C218   1.406       .  A
C217        H220   1.084       .  S
C218        C221   1.444       .  S
C221        N223   1.158       .  T
C222        N840   1.158   1_545  T
N224        C838   1.158       .  T
C225        C226   1.407       .  A
C225        C230   1.420       .  A
C226        C227   1.405       .  A
C226        H231   1.085       .  S
C227        C228   1.414       .  A
C227        C234   1.444       .  S
C228        C229   1.400       .  A
C229        C230   1.396       .  A
C229        H232   1.086       .  S
C230        C233   1.445       .  S
C233        N235   1.157       .  T
C234        N236   1.157       .  T
C237        C238   1.407       .  A
C237        C242   1.421       .  A
C238        C239   1.394       .  A
C238        H243   1.084       .  S
C239        C240   1.416       .  A
C239        C246   1.446       .  S
C240        C241   1.405       .  A
C241        C242   1.406       .  A
C241        H244   1.085       .  S
C242        C245   1.443       .  S
C245        N247   1.158       .  T
C246        N248   1.158       .  T
C249        C250   1.401       .  A
C249        C254   1.411       .  A
C250        C251   1.392       .  A
C250        H255   1.085       .  S
C251        C252   1.408       .  A
C251        C258   1.446       .  S
C252        C253   1.403       .  A
C253        C254   1.404       .  A
C253        H256   1.084       .  S
C254        C257   1.444       .  S
C257        N259   1.157       .  T
C258        N260   1.157       .  T
C261        C262   1.406       .  A
C261        C266   1.421       .  A
C262        C263   1.401       .  A
C262        H267   1.083       .  S
C263        C264   1.412       .  A
C263        C270   1.444       .  S
C264        C265   1.399       .  A
C265        C266   1.400       .  A
C265        H268   1.085       .  S
C266        C269   1.445       .  S
C269        N271   1.158       .  T
C270        N272   1.157       .  T
C273        C274   1.409       .  A
C273        C278   1.415       .  A
C274        C275   1.397       .  A
C274        H279   1.085       .  S
C275        C276   1.407       .  A
C275        C282   1.445       .  S
C276        C277   1.403       .  A
C277        C278   1.403       .  A
C277        H280   1.086       .  S
C278        C281   1.443       .  S
C281        N283   1.157       .  T
C282        N284   1.157       .  T
C285        C286   1.412       .  A
C285        C290   1.420       .  A
C286        C287   1.405       .  A
C286        H291   1.082       .  S
C287        C288   1.415       .  A
C287        C294   1.445       .  S
C288        C289   1.404       .  A
C289        C290   1.393       .  A
C289        H292   1.085       .  S
C290        C293   1.446       .  S
C293        N295   1.158       .  T
C294        N296   1.158       .  T
C297        C298   1.412       .  A
C297        C302   1.420       .  A
C298        C299   1.399       .  A
C298        H303   1.084       .  S
C299        C300   1.406       .  A
C299        C306   1.445       .  S
C300        C301   1.403       .  A
C301        C302   1.406       .  A
C301        H304   1.085       .  S
C302        C305   1.443       .  S
C305        N307   1.158       .  T
C306        N308   1.157       .  T
C309        C310   1.347       .  D
C309        C455   1.490       .  S
C309        C464   1.499       .  S
C310        C366   1.504       .  S
C310        C397   1.499       .  S
C311        C312   1.346       .  D
C311        C368   1.493       .  S
C311        C399   1.497       .  S
C312       C1649   1.498       .  S
C312       C1658   1.491       .  S
C313        C314   1.345       .  D
C313       C1569   1.495       .  S
C313       C1578   1.503       .  S
C314        C317   1.494       .  S
C314        C328   1.488       .  S
C315        C316   1.416       .  A
C315        C320   1.423       .  A
C315        C605   1.503       .  S
C316        C317   1.402       .  A
C316        H321   1.084       .  S
C317        C318   1.401       .  A
C318        C319   1.400   1_545  A
C318        H322   1.083   1_545  S
C319        C949   1.507       .  S
C319        C320   1.408   1_565  A
C320        H323   1.078   1_545  S
C324        C325   1.419       .  A
C324        C329   1.414       .  A
C324        C593   1.501       .  S
C325        C326   1.404   1_545  A
C325        H330   1.081   1_545  S
C326        C949   1.502       .  S
C326        C327   1.401   1_565  A
C327        C328   1.402       .  A
C327        H331   1.083   1_545  S
C328        C329   1.401       .  A
C329        H332   1.083       .  S
C333        C334   1.347       .  D
C333        C935   1.507       .  S
C333        C942   1.502       .  S
C334        C457   1.499       .  S
C334        C466   1.505       .  S
C335        C336   1.412       .  A
C335        C340   1.419       .  A
C335        C581   1.490       .  S
C336        C337   1.399   1_455  A
C336        H341   1.084   1_455  S
C337       C1545   1.495       .  S
C337        C338   1.402   1_655  A
C338        C339   1.401       .  A
C338        H342   1.083   1_455  S
C339        C353   1.501       .  S
C339        C340   1.406       .  A
C340        H343   1.081       .  S
C344        C345   1.421       .  A
C344        C349   1.412       .  A
C344        C569   1.495       .  S
C345        C346   1.407   1_455  A
C345        H350   1.081   1_455  S
C346       C1545   1.503       .  S
C346        C347   1.401   1_655  A
C347        C348   1.402       .  A
C347        H351   1.083   1_455  S
C348        C353   1.494       .  S
C348        C349   1.400       .  A
C349        H352   1.084       .  S
C353        C354   1.345       .  D
C354        C359   1.497       .  S
C354        C406   1.501       .  S
C355        C356   1.406       .  A
C355        C360   1.409       .  A
C355        C560   1.468       .  S
C356        C357   1.402   1_545  A
C356        H361   1.083   1_545  S
C357       C1088   1.494       .  S
C357        C358   1.405   1_565  A
C358        C359   1.404       .  A
C358        H362   1.082   1_545  S
C359        C360   1.402       .  A
C360        H363   1.084       .  S
C364        C365   1.418       .  A
C364        C369   1.419       .  A
C364        C545   1.502       .  S
C365        C366   1.402       .  A
C365        H370   1.077       .  S
C366        C367   1.400       .  A
C367        C368   1.401       .  A
C367        H371   1.083       .  S
C368        C369   1.403       .  A
C369        H372   1.083       .  S
O373        C381   1.263       .  A
O374        C375   1.264       .  A
C375        C596   1.491       .  S
C375        O376   1.260       .  A
O377        C378   1.268       .  A
C378        C521   1.490       .  S
C378        O379   1.263       .  A
O380        C381   1.262       .  A
C381        C533   1.490       .  S
O382        C390   1.264       .  A
O382       Cr391   1.995   1_556  S
O383        C384   1.262       .  A
O383       Cr391   1.984   1_556  S
C384        C608   1.478       .  S
C384        O385   1.265       .  A
O385       Cr392   2.002       .  S
O386        C387   1.258       .  A
O386       Cr392   1.983       .  S
C387        C557   1.468       .  S
C387        O388   1.261       .  A
O388       Cr393   1.992       .  S
O389        C390   1.265       .  A
O389       Cr393   1.991       .  S
C390        C548   1.491       .  S
Cr391       O394   1.766   1_554  S
Cr392       O394   1.768       .  S
Cr393       O394   1.769       .  S
C395        C396   1.415       .  A
C395        C400   1.412       .  A
C395        C536   1.486       .  S
C396        C397   1.405       .  A
C396        H401   1.084       .  S
C397        C398   1.403       .  A
C398        C399   1.403       .  A
C398        H402   1.083       .  S
C399        C400   1.401       .  A
C400        H403   1.082       .  S
C404        C405   1.416       .  A
C404        C409   1.415       .  A
C404        C524   1.490       .  S
C405        C406   1.406       .  A
C405        H410   1.083       .  S
C406        C407   1.401       .  A
C407        C408   1.401   1_545  A
C407        H411   1.083   1_545  S
C408       C1088   1.497       .  S
C408        C409   1.403   1_565  A
C409        H412   1.083   1_545  S
C413        C414   1.415       .  A
C413        C418   1.417       .  A
C413        C512   1.494       .  S
C414        C415   1.403       .  A
C414        H419   1.081       .  S
C415        C471   1.500       .  S
C415        C416   1.402       .  A
C416        C417   1.403   1_455  A
C416        H420   1.083   1_455  S
C417       C1544   1.498       .  S
C417        C418   1.405   1_655  A
C418        H421   1.084   1_455  S
C422        C423   1.408       .  A
C422        C427   1.406       .  A
C422        C500   1.467       .  S
C423        C424   1.402       .  A
C423        H428   1.084       .  S
C424        C471   1.496       .  S
C424        C425   1.403       .  A
C425        C426   1.404   1_455  A
C425        H429   1.083   1_455  S
C426       C1544   1.491       .  S
C426        C427   1.400   1_655  A
C427        H430   1.084   1_455  S
O431        C439   1.267       .  A
O432        C433   1.262       .  A
C433        C572   1.477       .  S
C433        O434   1.261       .  A
O435        C436   1.258       .  A
C436        C497   1.473       .  S
C436        O437   1.259       .  A
O438        C439   1.267       .  A
C439        C485   1.498       .  S
O440        C448   1.260       .  A
O440       Cr449   1.991       .  S
O441        C442   1.263       .  A
O441       Cr449   1.994       .  S
C442        C584   1.473       .  S
C442        O443   1.261       .  A
O443       Cr450   1.978   1_556  S
O444        C445   1.265       .  A
O444       Cr450   1.998   1_556  S
C445        C509   1.496       .  S
C445        O446   1.267       .  A
O446       Cr451   1.995       .  S
O447        C448   1.259       .  A
O447       Cr451   1.984       .  S
C448        C476   1.480       .  S
Cr449       O452   1.772   1_556  S
Cr450       O452   1.771       .  S
Cr451       O452   1.773   1_556  S
C453        C454   1.407       .  A
C453        C458   1.412       .  A
C453        C473   1.474       .  S
C454        C455   1.400       .  A
C454        H459   1.084       .  S
C455        C456   1.404       .  A
C456        C457   1.402       .  A
C456        H460   1.083       .  S
C457        C458   1.404       .  A
C458        H461   1.083       .  S
C462        C463   1.421       .  A
C462        C467   1.418       .  A
C462        C488   1.504       .  S
C463        C464   1.407       .  A
C463        H468   1.084       .  S
C464        C465   1.403       .  A
C465        C466   1.402       .  A
C465        H469   1.083       .  S
C466        C467   1.402       .  A
C467        H470   1.078       .  S
C471        C472   1.344       .  D
C472        C973   1.494       .  S
C472       C1024   1.497       .  S
C473        C474   1.398       .  A
C473        C478   1.411       .  A
C474        C475   1.393       .  A
C474        H479   1.086       .  S
C475        C476   1.417       .  A
C475        C482   1.446       .  S
C476        C477   1.406       .  A
C477        C478   1.405       .  A
C477        H480   1.085       .  S
C478        C481   1.444       .  S
C481        N483   1.157       .  T
C482        N484   1.157       .  T
C485        C486   1.407       .  A
C485        C490   1.419       .  A
C486        C487   1.407       .  A
C486        H491   1.085       .  S
C487        C488   1.421       .  A
C487        C494   1.443       .  S
C488        C489   1.406       .  A
C489        C490   1.398       .  A
C489        H492   1.084       .  S
C490        C493   1.445       .  S
C493        N495   1.158       .  T
C494        N496   1.158       .  T
C497        C498   1.405       .  A
C497        C502   1.414       .  A
C498        C499   1.403       .  A
C498        H503   1.084       .  S
C499        C500   1.408       .  A
C499        C506   1.443       .  S
C500        C501   1.398       .  A
C501        C502   1.392       .  A
C501        H504   1.086       .  S
C502        C505   1.446       .  S
C506        N508   1.157       .  T
C509        C510   1.408       .  A
C509        C514   1.421       .  A
C510        C511   1.407       .  A
C510        H515   1.085       .  S
C511        C512   1.416       .  A
C511        C518   1.443       .  S
C512        C513   1.402       .  A
C513        C514   1.396       .  A
C513        H516   1.085       .  S
C514        C517   1.446       .  S
C517        N519   1.158       .  T
C518        N520   1.157       .  T
C521        C522   1.405       .  A
C521        C526   1.417       .  A
C522        C523   1.396       .  A
C522        H527   1.084       .  S
C523        C524   1.415       .  A
C523        C530   1.446       .  S
C524        C525   1.407       .  A
C525        C526   1.406       .  A
C525        H528   1.084       .  S
C526        C529   1.444       .  S
C529        N531   1.158       .  T
C530       N1148   1.158   1_545  T
N532       C1146   1.158       .  T
C533        C534   1.407       .  A
C533        C538   1.420       .  A
C534        C535   1.405       .  A
C534        H539   1.085       .  S
C535        C536   1.414       .  A
C535        C542   1.444       .  S
C536        C537   1.400       .  A
C537        C538   1.396       .  A
C537        H540   1.086       .  S
C538        C541   1.445       .  S
C541        N543   1.157       .  T
C542        N544   1.157       .  T
C545        C546   1.407       .  A
C545        C550   1.421       .  A
C546        C547   1.394       .  A
C546        H551   1.084       .  S
C547        C548   1.416       .  A
C547        C554   1.446       .  S
C548        C549   1.405       .  A
C549        C550   1.406       .  A
C549        H552   1.085       .  S
C550        C553   1.443       .  S
C553        N555   1.158       .  T
C554        N556   1.158       .  T
C557        C558   1.401       .  A
C557        C562   1.411       .  A
C558        C559   1.392       .  A
C558        H563   1.085       .  S
C559        C560   1.408       .  A
C559        C566   1.446       .  S
C560        C561   1.403       .  A
C561        C562   1.404       .  A
C561        H564   1.084       .  S
C562        C565   1.444       .  S
C565        N567   1.157       .  T
C566        N568   1.157       .  T
C569        C570   1.406       .  A
C569        C574   1.421       .  A
C570        C571   1.401       .  A
C570        H575   1.083       .  S
C571        C572   1.412       .  A
C571        C578   1.444       .  S
C572        C573   1.399       .  A
C573        C574   1.400       .  A
C573        H576   1.085       .  S
C574        C577   1.445       .  S
C577        N579   1.158       .  T
C578        N580   1.157       .  T
C581        C582   1.409       .  A
C581        C586   1.415       .  A
C582        C583   1.397       .  A
C582        H587   1.085       .  S
C583        C584   1.407       .  A
C583        C590   1.445       .  S
C584        C585   1.403       .  A
C585        C586   1.403       .  A
C585        H588   1.086       .  S
C586        C589   1.443       .  S
C589        N591   1.157       .  T
C590        N592   1.157       .  T
C593        C594   1.412       .  A
C593        C598   1.420       .  A
C594        C595   1.405       .  A
C594        H599   1.082       .  S
C595        C596   1.415       .  A
C595        C602   1.445       .  S
C596        C597   1.404       .  A
C597        C598   1.393       .  A
C597        H600   1.085       .  S
C598        C601   1.446       .  S
C601        N603   1.158       .  T
C602        N604   1.158       .  T
C605        C606   1.412       .  A
C605        C610   1.420       .  A
C606        C607   1.399       .  A
C606        H611   1.084       .  S
C607        C608   1.406       .  A
C607        C614   1.445       .  S
C608        C609   1.403       .  A
C609        C610   1.406       .  A
C609        H612   1.085       .  S
C610        C613   1.443       .  S
C613        N615   1.158       .  T
C614        N616   1.157       .  T
C617        C618   1.347       .  D
C617        C763   1.490       .  S
C617        C772   1.499       .  S
C618        C674   1.504       .  S
C618        C705   1.499       .  S
C619        C620   1.346       .  D
C619        C676   1.493       .  S
C619        C707   1.497       .  S
C620       C1957   1.498       .  S
C620       C1966   1.491       .  S
C621        C622   1.345       .  D
C621       C1877   1.495       .  S
C621       C1886   1.503       .  S
C622        C625   1.494       .  S
C622        C636   1.488       .  S
C623        C624   1.416       .  A
C623        C628   1.423       .  A
C623        C913   1.503       .  S
C624        C625   1.402       .  A
C624        H629   1.084       .  S
C625        C626   1.401       .  A
C626        C627   1.400       .  A
C626        H630   1.083       .  S
C627        C628   1.408       .  A
C628        H631   1.078       .  S
C632        C633   1.419       .  A
C632        C637   1.414       .  A
C632        C901   1.501       .  S
C633        C634   1.404       .  A
C633        H638   1.081       .  S
C634        C635   1.401       .  A
C635        C636   1.402       .  A
C635        H639   1.083       .  S
C636        C637   1.401       .  A
C637        H640   1.083       .  S
C641        C642   1.347       .  D
C642        C765   1.499       .  S
C642        C774   1.505       .  S
C643        C644   1.412       .  A
C643        C648   1.419       .  A
C643        C889   1.490       .  S
C644        C645   1.399   1_455  A
C644        H649   1.084   1_455  S
C645       C1853   1.495       .  S
C645        C646   1.402   1_655  A
C646        C647   1.401       .  A
C646        H650   1.083   1_455  S
C647        C661   1.501       .  S
C647        C648   1.406       .  A
C648        H651   1.081       .  S
C652        C653   1.421       .  A
C652        C657   1.412       .  A
C652        C877   1.495       .  S
C653        C654   1.407   1_455  A
C653        H658   1.081   1_455  S
C654       C1853   1.503       .  S
C654        C655   1.401   1_655  A
C655        C656   1.402       .  A
C655        H659   1.083   1_455  S
C656        C661   1.494       .  S
C656        C657   1.400       .  A
C657        H660   1.084       .  S
C661        C662   1.345       .  D
C662        C667   1.497       .  S
C662        C714   1.501       .  S
C663        C664   1.406       .  A
C663        C668   1.409       .  A
C663        C868   1.468       .  S
C664        C665   1.402       .  A
C664        H669   1.083       .  S
C665        C666   1.405       .  A
C666        C667   1.404       .  A
C666        H670   1.082       .  S
C667        C668   1.402       .  A
C668        H671   1.084       .  S
C672        C673   1.418       .  A
C672        C677   1.419       .  A
C672        C853   1.502       .  S
C673        C674   1.402       .  A
C673        H678   1.077       .  S
C674        C675   1.400       .  A
C675        C676   1.401       .  A
C675        H679   1.083       .  S
C676        C677   1.403       .  A
C677        H680   1.083       .  S
O681        C689   1.263       .  A
O681      Cr1007   1.992       .  S
O682        C683   1.264       .  A
O682      Cr1007   1.989       .  S
C683        C904   1.491       .  S
C683        O684   1.260       .  A
O684      Cr1008   1.984   1_554  S
O685        C686   1.268       .  A
O685      Cr1008   2.005   1_554  S
C686        C829   1.490       .  S
C686        O687   1.263       .  A
O687      Cr1009   1.984   1_554  S
O688        C689   1.262       .  A
O688      Cr1009   1.993   1_554  S
C689        C841   1.490       .  S
O690        C698   1.264       .  A
O690       Cr699   1.995       .  S
O691        C692   1.262       .  A
O691       Cr699   1.984       .  S
C692        C916   1.478       .  S
C692        O693   1.265       .  A
O693       Cr700   2.002       .  S
O694        C695   1.258       .  A
O694       Cr700   1.983       .  S
C695        C865   1.468       .  S
C695        O696   1.261       .  A
O696       Cr701   1.992       .  S
O697        C698   1.265       .  A
O697       Cr701   1.991       .  S
C698        C856   1.491       .  S
Cr699       O989   1.992       .  S
Cr699       O990   1.989       .  S
Cr699       O702   1.766       .  S
Cr700       O992   1.984       .  S
Cr700       O993   2.005       .  S
Cr700       O702   1.768       .  S
Cr701       O995   1.984       .  S
Cr701       O996   1.993       .  S
Cr701       O702   1.769       .  S
C703        C704   1.415       .  A
C703        C708   1.412       .  A
C703        C844   1.486       .  S
C704        C705   1.405       .  A
C704        H709   1.084       .  S
C705        C706   1.403       .  A
C706        C707   1.403       .  A
C706        H710   1.083       .  S
C707        C708   1.401       .  A
C708        H711   1.082       .  S
C712        C713   1.416       .  A
C712        C717   1.415       .  A
C712        C832   1.490       .  S
C713        C714   1.406       .  A
C713        H718   1.083       .  S
C714        C715   1.401       .  A
C715        C716   1.401       .  A
C715        H719   1.083       .  S
C716        C717   1.403       .  A
C717        H720   1.083       .  S
C721        C722   1.415       .  A
C721        C726   1.417       .  A
C721        C820   1.494       .  S
C722        C723   1.403       .  A
C722        H727   1.081       .  S
C723        C779   1.500       .  S
C723        C724   1.402       .  A
C724        C725   1.403   1_455  A
C724        H728   1.083   1_455  S
C725       C1852   1.498       .  S
C725        C726   1.405   1_655  A
C726        H729   1.084   1_455  S
C730        C731   1.408       .  A
C730        C735   1.406       .  A
C730        C808   1.467       .  S
C731        C732   1.402       .  A
C731        H736   1.084       .  S
C732        C779   1.496       .  S
C732        C733   1.403       .  A
C733        C734   1.404   1_455  A
C733        H737   1.083   1_455  S
C734       C1852   1.491       .  S
C734        C735   1.400   1_655  A
C735        H738   1.084   1_455  S
O739        C747   1.267       .  A
O739      Cr1065   2.002   1_554  S
O740        C741   1.262       .  A
O740      Cr1065   1.986   1_554  S
C741        C880   1.477       .  S
C741        O742   1.261       .  A
O742      Cr1066   1.990       .  S
O743        C744   1.258       .  A
O743      Cr1066   1.986       .  S
C744        C805   1.473       .  S
C744        O745   1.259       .  A
O745      Cr1067   1.987   1_554  S
O746        C747   1.267       .  A
O746      Cr1067   1.994   1_554  S
C747        C793   1.498       .  S
O748        C756   1.260       .  A
O748       Cr757   1.991       .  S
O749        C750   1.263       .  A
O749       Cr757   1.994       .  S
C750        C892   1.473       .  S
C750        O751   1.261       .  A
O751       Cr758   1.978       .  S
O752        C753   1.265       .  A
O752       Cr758   1.998       .  S
C753        C817   1.496       .  S
C753        O754   1.267       .  A
O754       Cr759   1.995       .  S
O755        C756   1.259       .  A
O755       Cr759   1.984       .  S
C756        C784   1.480       .  S
Cr757      O1047   2.002       .  S
Cr757      O1048   1.986       .  S
Cr757       O760   1.772       .  S
Cr758      O1050   1.990       .  S
Cr758      O1051   1.986       .  S
Cr758       O760   1.771       .  S
Cr759      O1053   1.987       .  S
Cr759      O1054   1.994       .  S
Cr759       O760   1.773       .  S
C761        C762   1.407       .  A
C761        C766   1.412       .  A
C761        C781   1.474       .  S
C762        C763   1.400       .  A
C762        H767   1.084       .  S
C763        C764   1.404       .  A
C764        C765   1.402       .  A
C764        H768   1.083       .  S
C765        C766   1.404       .  A
C766        H769   1.083       .  S
C770        C771   1.421       .  A
C770        C775   1.418       .  A
C770        C796   1.504       .  S
C771        C772   1.407       .  A
C771        H776   1.084       .  S
C772        C773   1.403       .  A
C773        C774   1.402       .  A
C773        H777   1.083       .  S
C774        C775   1.402       .  A
C775        H778   1.078       .  S
C779        C780   1.344       .  D
C781        C782   1.398       .  A
C781        C786   1.411       .  A
C782        C783   1.393       .  A
C782        H787   1.086       .  S
C783        C784   1.417       .  A
C783        C790   1.446       .  S
C784        C785   1.406       .  A
C785        C786   1.405       .  A
C785        H788   1.085       .  S
C786        C789   1.444       .  S
C789        N791   1.157       .  T
C790        N792   1.157       .  T
C793        C794   1.407       .  A
C793        C798   1.419       .  A
C794        C795   1.407       .  A
C794        H799   1.085       .  S
C795        C796   1.420       .  A
C795        C802   1.443       .  S
C796        C797   1.406       .  A
C797        C798   1.398       .  A
C797        H800   1.084       .  S
C798        C801   1.445       .  S
C801        N803   1.158       .  T
C802        N804   1.158       .  T
C805        C806   1.405       .  A
C805        C810   1.414       .  A
C806        C807   1.403       .  A
C806        H811   1.084       .  S
C807        C808   1.408       .  A
C807        C814   1.443       .  S
C808        C809   1.398       .  A
C809        C810   1.392       .  A
C809        H812   1.086       .  S
C810        C813   1.446       .  S
C813       N1123   1.157       .  T
C814        N816   1.157       .  T
N815       C1121   1.157       .  T
C817        C818   1.408       .  A
C817        C822   1.421       .  A
C818        C819   1.407       .  A
C818        H823   1.085       .  S
C819        C820   1.416       .  A
C819        C826   1.443       .  S
C820        C821   1.402       .  A
C821        C822   1.396       .  A
C821        H824   1.085       .  S
C822        C825   1.446       .  S
C825        N827   1.158       .  T
C826        N828   1.157       .  T
C829        C830   1.405       .  A
C829        C834   1.417       .  A
C830        C831   1.396       .  A
C830        H835   1.084       .  S
C831        C832   1.415       .  A
C831        C838   1.446       .  S
C832        C833   1.407       .  A
C833        C834   1.406       .  A
C833        H836   1.084       .  S
C834        C837   1.444       .  S
C837        N839   1.158       .  T
C841        C842   1.407       .  A
C841        C846   1.420       .  A
C842        C843   1.405       .  A
C842        H847   1.085       .  S
C843        C844   1.414       .  A
C843        C850   1.444       .  S
C844        C845   1.400       .  A
C845        C846   1.396       .  A
C845        H848   1.086       .  S
C846        C849   1.445       .  S
C849        N851   1.157       .  T
C850        N852   1.157       .  T
C853        C854   1.407       .  A
C853        C858   1.421       .  A
C854        C855   1.394       .  A
C854        H859   1.084       .  S
C855        C856   1.416       .  A
C855        C862   1.446       .  S
C856        C857   1.405       .  A
C857        C858   1.406       .  A
C857        H860   1.085       .  S
C858        C861   1.443       .  S
C861        N863   1.158       .  T
C862        N864   1.158       .  T
C865        C866   1.401       .  A
C865        C870   1.411       .  A
C866        C867   1.392       .  A
C866        H871   1.085       .  S
C867        C868   1.408       .  A
C867        C874   1.446       .  S
C868        C869   1.403       .  A
C869        C870   1.404       .  A
C869        H872   1.084       .  S
C870        C873   1.444       .  S
C873        N875   1.157       .  T
C874        N876   1.157       .  T
C877        C878   1.406       .  A
C877        C882   1.421       .  A
C878        C879   1.401       .  A
C878        H883   1.083       .  S
C879        C880   1.412       .  A
C879        C886   1.444       .  S
C880        C881   1.399       .  A
C881        C882   1.400       .  A
C881        H884   1.085       .  S
C882        C885   1.445       .  S
C885        N887   1.158       .  T
C886        N888   1.157       .  T
C889        C890   1.409       .  A
C889        C894   1.415       .  A
C890        C891   1.397       .  A
C890        H895   1.085       .  S
C891        C892   1.407       .  A
C891        C898   1.445       .  S
C892        C893   1.403       .  A
C893        C894   1.403       .  A
C893        H896   1.086       .  S
C894        C897   1.443       .  S
C897        N899   1.157       .  T
C898        N900   1.157       .  T
C901        C902   1.412       .  A
C901        C906   1.420       .  A
C902        C903   1.405       .  A
C902        H907   1.082       .  S
C903        C904   1.415       .  A
C903        C910   1.445       .  S
C904        C905   1.404       .  A
C905        C906   1.393       .  A
C905        H908   1.085       .  S
C906        C909   1.446       .  S
C909        N911   1.158       .  T
C910        N912   1.158       .  T
C913        C914   1.412       .  A
C913        C918   1.420       .  A
C914        C915   1.399       .  A
C914        H919   1.084       .  S
C915        C916   1.406       .  A
C915        C922   1.445       .  S
C916        C917   1.403       .  A
C917        C918   1.406       .  A
C917        H920   1.085       .  S
C918        C921   1.443       .  S
C921        N923   1.158       .  T
C922        N924   1.157       .  T
C925        C926   1.347       .  D
C925       C1071   1.490       .  S
C925       C1080   1.499       .  S
C926        C982   1.504       .  S
C926       C1013   1.499       .  S
C927        C928   1.346       .  D
C927        C984   1.493       .  S
C927       C1015   1.497       .  S
C928       C2265   1.498       .  S
C928       C2274   1.491       .  S
C929        C930   1.345       .  D
C929       C2185   1.495       .  S
C929       C2194   1.503       .  S
C930        C933   1.494       .  S
C930        C944   1.488       .  S
C931        C932   1.416       .  A
C931        C936   1.423       .  A
C931       C1221   1.503       .  S
C932        C933   1.402       .  A
C932        H937   1.084       .  S
C933        C934   1.401       .  A
C934        C935   1.400       .  A
C934        H938   1.083       .  S
C935        C936   1.408       .  A
C936        H939   1.078       .  S
C940        C941   1.419       .  A
C940        C945   1.414       .  A
C940       C1209   1.501       .  S
C941        C942   1.404       .  A
C941        H946   1.081       .  S
C942        C943   1.401       .  A
C943        C944   1.402       .  A
C943        H947   1.083       .  S
C944        C945   1.401       .  A
C945        H948   1.083       .  S
C949        C950   1.347       .  D
C950       C1073   1.499       .  S
C950       C1082   1.505       .  S
C951        C952   1.412       .  A
C951        C956   1.419       .  A
C951       C1197   1.490       .  S
C952        C953   1.399   1_455  A
C952        H957   1.084   1_455  S
C953       C2161   1.495       .  S
C953        C954   1.402   1_655  A
C954        C955   1.401       .  A
C954        H958   1.083   1_455  S
C955        C969   1.501       .  S
C955        C956   1.406       .  A
C956        H959   1.081       .  S
C960        C961   1.421       .  A
C960        C965   1.412       .  A
C960       C1185   1.495       .  S
C961        C962   1.407   1_455  A
C961        H966   1.081   1_455  S
C962       C2161   1.503       .  S
C962        C963   1.401   1_655  A
C963        C964   1.402       .  A
C963        H967   1.083   1_455  S
C964        C969   1.494       .  S
C964        C965   1.400       .  A
C965        H968   1.084       .  S
C969        C970   1.345       .  D
C970        C975   1.497       .  S
C970       C1022   1.501       .  S
C971        C972   1.406       .  A
C971        C976   1.409       .  A
C971       C1176   1.468       .  S
C972        C973   1.402       .  A
C972        H977   1.083       .  S
C973        C974   1.405       .  A
C974        C975   1.404       .  A
C974        H978   1.082       .  S
C975        C976   1.402       .  A
C976        H979   1.084       .  S
C980        C981   1.418       .  A
C980        C985   1.419       .  A
C980       C1161   1.502       .  S
C981        C982   1.402       .  A
C981        H986   1.077       .  S
C982        C983   1.400       .  A
C983        C984   1.401       .  A
C983        H987   1.083       .  S
C984        C985   1.403       .  A
C985        H988   1.083       .  S
O989        C997   1.263       .  A
O990        C991   1.264       .  A
C991       C1212   1.491       .  S
C991        O992   1.260       .  A
O993        C994   1.268       .  A
C994       C1137   1.490       .  S
C994        O995   1.263       .  A
O996        C997   1.262       .  A
C997       C1149   1.490       .  S
O998       C1006   1.264       .  A
O998      Cr1007   1.995   1_556  S
O999       C1000   1.262       .  A
O999      Cr1007   1.984   1_556  S
C1000      C1224   1.478       .  S
C1000      O1001   1.265       .  A
O1001     Cr1008   2.002       .  S
O1002      C1003   1.258       .  A
O1002     Cr1008   1.983       .  S
C1003      C1173   1.468       .  S
C1003      O1004   1.261       .  A
O1004     Cr1009   1.992       .  S
O1005      C1006   1.265       .  A
O1005     Cr1009   1.991       .  S
C1006      C1164   1.491       .  S
Cr1007     O1010   1.766   1_554  S
Cr1008     O1010   1.768       .  S
Cr1009     O1010   1.769       .  S
C1011      C1012   1.415       .  A
C1011      C1016   1.412       .  A
C1011      C1152   1.486       .  S
C1012      C1013   1.405       .  A
C1012      H1017   1.084       .  S
C1013      C1014   1.403       .  A
C1014      C1015   1.403       .  A
C1014      H1018   1.083       .  S
C1015      C1016   1.401       .  A
C1016      H1019   1.082       .  S
C1020      C1021   1.416       .  A
C1020      C1025   1.415       .  A
C1020      C1140   1.490       .  S
C1021      C1022   1.406       .  A
C1021      H1026   1.083       .  S
C1022      C1023   1.401       .  A
C1023      C1024   1.401       .  A
C1023      H1027   1.083       .  S
C1024      C1025   1.403       .  A
C1025      H1028   1.083       .  S
C1029      C1030   1.415       .  A
C1029      C1034   1.417       .  A
C1029      C1128   1.494       .  S
C1030      C1031   1.403       .  A
C1030      H1035   1.081       .  S
C1031      C1087   1.500       .  S
C1031      C1032   1.402       .  A
C1032      C1033   1.403   1_455  A
C1032      H1036   1.083   1_455  S
C1033      C2160   1.498       .  S
C1033      C1034   1.405   1_655  A
C1034      H1037   1.084   1_455  S
C1038      C1039   1.408       .  A
C1038      C1043   1.406       .  A
C1038      C1116   1.467       .  S
C1039      C1040   1.402       .  A
C1039      H1044   1.084       .  S
C1040      C1087   1.496       .  S
C1040      C1041   1.403       .  A
C1041      C1042   1.404   1_455  A
C1041      H1045   1.083   1_455  S
C1042      C2160   1.491       .  S
C1042      C1043   1.400   1_655  A
C1043      H1046   1.084   1_455  S
O1047      C1055   1.267       .  A
O1048      C1049   1.262       .  A
C1049      C1188   1.477       .  S
C1049      O1050   1.261       .  A
O1051      C1052   1.258       .  A
C1052      C1113   1.473       .  S
C1052      O1053   1.259       .  A
O1054      C1055   1.267       .  A
C1055      C1101   1.498       .  S
O1056      C1064   1.260       .  A
O1056     Cr1065   1.991       .  S
O1057      C1058   1.263       .  A
O1057     Cr1065   1.994       .  S
C1058      C1200   1.473       .  S
C1058      O1059   1.261       .  A
O1059     Cr1066   1.978   1_556  S
O1060      C1061   1.265       .  A
O1060     Cr1066   1.998   1_556  S
C1061      C1125   1.496       .  S
C1061      O1062   1.267       .  A
O1062     Cr1067   1.995       .  S
O1063      C1064   1.259       .  A
O1063     Cr1067   1.984       .  S
C1064      C1092   1.480       .  S
Cr1065     O1068   1.772   1_556  S
Cr1066     O1068   1.771       .  S
Cr1067     O1068   1.773   1_556  S
C1069      C1070   1.407       .  A
C1069      C1074   1.412       .  A
C1069      C1089   1.474       .  S
C1070      C1071   1.400       .  A
C1070      H1075   1.084       .  S
C1071      C1072   1.404       .  A
C1072      C1073   1.402       .  A
C1072      H1076   1.083       .  S
C1073      C1074   1.404       .  A
C1074      H1077   1.083       .  S
C1078      C1079   1.421       .  A
C1078      C1083   1.418       .  A
C1078      C1104   1.504       .  S
C1079      C1080   1.407       .  A
C1079      H1084   1.084       .  S
C1080      C1081   1.403       .  A
C1081      C1082   1.402       .  A
C1081      H1085   1.083       .  S
C1082      C1083   1.402       .  A
C1083      H1086   1.078       .  S
C1087      C1088   1.344       .  D
C1089      C1090   1.398       .  A
C1089      C1094   1.411       .  A
C1090      C1091   1.393       .  A
C1090      H1095   1.086       .  S
C1091      C1092   1.417       .  A
C1091      C1098   1.446       .  S
C1092      C1093   1.406       .  A
C1093      C1094   1.405       .  A
C1093      H1096   1.085       .  S
C1094      C1097   1.444       .  S
C1097      N1099   1.157       .  T
C1098      N1100   1.157       .  T
C1101      C1102   1.407       .  A
C1101      C1106   1.419       .  A
C1102      C1103   1.407       .  A
C1102      H1107   1.085       .  S
C1103      C1104   1.420       .  A
C1103      C1110   1.443       .  S
C1104      C1105   1.406       .  A
C1105      C1106   1.398       .  A
C1105      H1108   1.084       .  S
C1106      C1109   1.445       .  S
C1109      N1111   1.158       .  T
C1110      N1112   1.158       .  T
C1113      C1114   1.405       .  A
C1113      C1118   1.414       .  A
C1114      C1115   1.403       .  A
C1114      H1119   1.084       .  S
C1115      C1116   1.408       .  A
C1115      C1122   1.443       .  S
C1116      C1117   1.398       .  A
C1117      C1118   1.392       .  A
C1117      H1120   1.086       .  S
C1118      C1121   1.446       .  S
C1122      N1124   1.157       .  T
C1125      C1126   1.408       .  A
C1125      C1130   1.421       .  A
C1126      C1127   1.407       .  A
C1126      H1131   1.085       .  S
C1127      C1128   1.416       .  A
C1127      C1134   1.443       .  S
C1128      C1129   1.402       .  A
C1129      C1130   1.396       .  A
C1129      H1132   1.085       .  S
C1130      C1133   1.446       .  S
C1133      N1135   1.158       .  T
C1134      N1136   1.157       .  T
C1137      C1138   1.405       .  A
C1137      C1142   1.417       .  A
C1138      C1139   1.396       .  A
C1138      H1143   1.084       .  S
C1139      C1140   1.415       .  A
C1139      C1146   1.446       .  S
C1140      C1141   1.407       .  A
C1141      C1142   1.406       .  A
C1141      H1144   1.084       .  S
C1142      C1145   1.444       .  S
C1145      N1147   1.158       .  T
C1149      C1150   1.407       .  A
C1149      C1154   1.420       .  A
C1150      C1151   1.405       .  A
C1150      H1155   1.085       .  S
C1151      C1152   1.414       .  A
C1151      C1158   1.444       .  S
C1152      C1153   1.400       .  A
C1153      C1154   1.396       .  A
C1153      H1156   1.086       .  S
C1154      C1157   1.445       .  S
C1157      N1159   1.157       .  T
C1158      N1160   1.157       .  T
C1161      C1162   1.407       .  A
C1161      C1166   1.421       .  A
C1162      C1163   1.394       .  A
C1162      H1167   1.084       .  S
C1163      C1164   1.416       .  A
C1163      C1170   1.446       .  S
C1164      C1165   1.405       .  A
C1165      C1166   1.406       .  A
C1165      H1168   1.085       .  S
C1166      C1169   1.443       .  S
C1169      N1171   1.158       .  T
C1170      N1172   1.158       .  T
C1173      C1174   1.401       .  A
C1173      C1178   1.411       .  A
C1174      C1175   1.392       .  A
C1174      H1179   1.085       .  S
C1175      C1176   1.408       .  A
C1175      C1182   1.446       .  S
C1176      C1177   1.403       .  A
C1177      C1178   1.404       .  A
C1177      H1180   1.084       .  S
C1178      C1181   1.444       .  S
C1181      N1183   1.157       .  T
C1182      N1184   1.157       .  T
C1185      C1186   1.406       .  A
C1185      C1190   1.421       .  A
C1186      C1187   1.401       .  A
C1186      H1191   1.083       .  S
C1187      C1188   1.412       .  A
C1187      C1194   1.444       .  S
C1188      C1189   1.399       .  A
C1189      C1190   1.400       .  A
C1189      H1192   1.085       .  S
C1190      C1193   1.445       .  S
C1193      N1195   1.158       .  T
C1194      N1196   1.157       .  T
C1197      C1198   1.409       .  A
C1197      C1202   1.415       .  A
C1198      C1199   1.397       .  A
C1198      H1203   1.085       .  S
C1199      C1200   1.407       .  A
C1199      C1206   1.445       .  S
C1200      C1201   1.403       .  A
C1201      C1202   1.403       .  A
C1201      H1204   1.086       .  S
C1202      C1205   1.443       .  S
C1205      N1207   1.157       .  T
C1206      N1208   1.157       .  T
C1209      C1210   1.412       .  A
C1209      C1214   1.420       .  A
C1210      C1211   1.405       .  A
C1210      H1215   1.082       .  S
C1211      C1212   1.415       .  A
C1211      C1218   1.445       .  S
C1212      C1213   1.404       .  A
C1213      C1214   1.393       .  A
C1213      H1216   1.085       .  S
C1214      C1217   1.446       .  S
C1217      N1219   1.158       .  T
C1218      N1220   1.158       .  T
C1221      C1222   1.412       .  A
C1221      C1226   1.420       .  A
C1222      C1223   1.399       .  A
C1222      H1227   1.084       .  S
C1223      C1224   1.406       .  A
C1223      C1230   1.445       .  S
C1224      C1225   1.403       .  A
C1225      C1226   1.406       .  A
C1225      H1228   1.085       .  S
C1226      C1229   1.443       .  S
C1229      N1231   1.158       .  T
C1230      N1232   1.157       .  T
C1233      C1234   1.347       .  D
C1233      C1379   1.490       .  S
C1233      C1388   1.499       .  S
C1234      C1290   1.504       .  S
C1234      C1321   1.499       .  S
C1235      C1236   1.346       .  D
C1235      C1292   1.493       .  S
C1235      C1323   1.497       .  S
C1237      C1238   1.345       .  D
C1238      C1241   1.494       .  S
C1238      C1252   1.488       .  S
C1239      C1240   1.416       .  A
C1239      C1244   1.423       .  A
C1239      C1529   1.503       .  S
C1240      C1241   1.402       .  A
C1240      H1245   1.084       .  S
C1241      C1242   1.401       .  A
C1242      C1243   1.400   1_545  A
C1242      H1246   1.083   1_545  S
C1243      C1873   1.507       .  S
C1243      C1244   1.408   1_565  A
C1244      H1247   1.078   1_545  S
C1248      C1249   1.419       .  A
C1248      C1253   1.414       .  A
C1248      C1517   1.501       .  S
C1249      C1250   1.404   1_545  A
C1249      H1254   1.081   1_545  S
C1250      C1873   1.502       .  S
C1250      C1251   1.401   1_565  A
C1251      C1252   1.402       .  A
C1251      H1255   1.083   1_545  S
C1252      C1253   1.401       .  A
C1253      H1256   1.083       .  S
C1257      C1258   1.347       .  D
C1257      C1859   1.507       .  S
C1257      C1866   1.502       .  S
C1258      C1381   1.499       .  S
C1258      C1390   1.505       .  S
C1259      C1260   1.412       .  A
C1259      C1264   1.419       .  A
C1259      C1505   1.490       .  S
C1260      C1261   1.399       .  A
C1260      H1265   1.084       .  S
C1261      C1262   1.402       .  A
C1262      C1263   1.401       .  A
C1262      H1266   1.083       .  S
C1263      C1277   1.501       .  S
C1263      C1264   1.406       .  A
C1264      H1267   1.081       .  S
C1268      C1269   1.421       .  A
C1268      C1273   1.412       .  A
C1268      C1493   1.495       .  S
C1269      C1270   1.407       .  A
C1269      H1274   1.081       .  S
C1270      C1271   1.401       .  A
C1271      C1272   1.402       .  A
C1271      H1275   1.083       .  S
C1272      C1277   1.494       .  S
C1272      C1273   1.400       .  A
C1273      H1276   1.084       .  S
C1277      C1278   1.345       .  D
C1278      C1283   1.497       .  S
C1278      C1330   1.501       .  S
C1279      C1280   1.406       .  A
C1279      C1284   1.409       .  A
C1279      C1484   1.468       .  S
C1280      C1281   1.402   1_545  A
C1280      H1285   1.083   1_545  S
C1281      C2012   1.494       .  S
C1281      C1282   1.405   1_565  A
C1282      C1283   1.404       .  A
C1282      H1286   1.082   1_545  S
C1283      C1284   1.402       .  A
C1284      H1287   1.084       .  S
C1288      C1289   1.418       .  A
C1288      C1293   1.419       .  A
C1288      C1469   1.502       .  S
C1289      C1290   1.402       .  A
C1289      H1294   1.077       .  S
C1290      C1291   1.400       .  A
C1291      C1292   1.401       .  A
C1291      H1295   1.083       .  S
C1292      C1293   1.403       .  A
C1293      H1296   1.083       .  S
O1297      C1305   1.263       .  A
O1297     Cr1623   1.992       .  S
O1298      C1299   1.264       .  A
O1298     Cr1623   1.989       .  S
C1299      C1520   1.491       .  S
C1299      O1300   1.260       .  A
O1300     Cr1624   1.984   1_554  S
O1301      C1302   1.268       .  A
O1301     Cr1624   2.005   1_554  S
C1302      C1445   1.490       .  S
C1302      O1303   1.263       .  A
O1303     Cr1625   1.984   1_554  S
O1304      C1305   1.262       .  A
O1304     Cr1625   1.993   1_554  S
C1305      C1457   1.490       .  S
O1306      C1314   1.264       .  A
O1306     Cr1315   1.995       .  S
O1307      C1308   1.262       .  A
O1307     Cr1315   1.984       .  S
C1308      C1532   1.478       .  S
C1308      O1309   1.265       .  A
O1309     Cr1316   2.002       .  S
O1310      C1311   1.258       .  A
O1310     Cr1316   1.983       .  S
C1311      C1481   1.468       .  S
C1311      O1312   1.261       .  A
O1312     Cr1317   1.992       .  S
O1313      C1314   1.265       .  A
O1313     Cr1317   1.991       .  S
C1314      C1472   1.491       .  S
Cr1315     O1605   1.992       .  S
Cr1315     O1606   1.989       .  S
Cr1315     O1318   1.766       .  S
Cr1316     O1608   1.984       .  S
Cr1316     O1609   2.005       .  S
Cr1316     O1318   1.768       .  S
Cr1317     O1611   1.984       .  S
Cr1317     O1612   1.993       .  S
Cr1317     O1318   1.769       .  S
C1319      C1320   1.415       .  A
C1319      C1324   1.412       .  A
C1319      C1460   1.486       .  S
C1320      C1321   1.405       .  A
C1320      H1325   1.084       .  S
C1321      C1322   1.403       .  A
C1322      C1323   1.403       .  A
C1322      H1326   1.083       .  S
C1323      C1324   1.401       .  A
C1324      H1327   1.082       .  S
C1328      C1329   1.416       .  A
C1328      C1333   1.415       .  A
C1328      C1448   1.490       .  S
C1329      C1330   1.406       .  A
C1329      H1334   1.083       .  S
C1330      C1331   1.401       .  A
C1331      C1332   1.401   1_545  A
C1331      H1335   1.083   1_545  S
C1332      C2012   1.497       .  S
C1332      C1333   1.403   1_565  A
C1333      H1336   1.083   1_545  S
C1337      C1338   1.415       .  A
C1337      C1342   1.417       .  A
C1337      C1436   1.494       .  S
C1338      C1339   1.403       .  A
C1338      H1343   1.081       .  S
C1339      C1395   1.500       .  S
C1339      C1340   1.402       .  A
C1340      C1341   1.403       .  A
C1340      H1344   1.083       .  S
C1341      C1342   1.405       .  A
C1342      H1345   1.084       .  S
C1346      C1347   1.408       .  A
C1346      C1351   1.406       .  A
C1346      C1424   1.467       .  S
C1347      C1348   1.402       .  A
C1347      H1352   1.084       .  S
C1348      C1395   1.496       .  S
C1348      C1349   1.403       .  A
C1349      C1350   1.404       .  A
C1349      H1353   1.083       .  S
C1350      C1351   1.400       .  A
C1351      H1354   1.084       .  S
O1355      C1363   1.267       .  A
O1355     Cr1681   2.002   1_554  S
O1356      C1357   1.262       .  A
O1356     Cr1681   1.986   1_554  S
C1357      C1496   1.477       .  S
C1357      O1358   1.261       .  A
O1358     Cr1682   1.990       .  S
O1359      C1360   1.258       .  A
O1359     Cr1682   1.986       .  S
C1360      C1421   1.473       .  S
C1360      O1361   1.259       .  A
O1361     Cr1683   1.987   1_554  S
O1362      C1363   1.267       .  A
O1362     Cr1683   1.994   1_554  S
C1363      C1409   1.498       .  S
O1364      C1372   1.260       .  A
O1364     Cr1373   1.991       .  S
O1365      C1366   1.263       .  A
O1365     Cr1373   1.994       .  S
C1366      C1508   1.473       .  S
C1366      O1367   1.261       .  A
O1367     Cr1374   1.978       .  S
O1368      C1369   1.265       .  A
O1368     Cr1374   1.998       .  S
C1369      C1433   1.496       .  S
C1369      O1370   1.267       .  A
O1370     Cr1375   1.995       .  S
O1371      C1372   1.259       .  A
O1371     Cr1375   1.984       .  S
C1372      C1400   1.480       .  S
Cr1373     O1663   2.002       .  S
Cr1373     O1664   1.986       .  S
Cr1373     O1376   1.772       .  S
Cr1374     O1666   1.990       .  S
Cr1374     O1667   1.986       .  S
Cr1374     O1376   1.771       .  S
Cr1375     O1669   1.987       .  S
Cr1375     O1670   1.994       .  S
Cr1375     O1376   1.773       .  S
C1377      C1378   1.407       .  A
C1377      C1382   1.412       .  A
C1377      C1397   1.474       .  S
C1378      C1379   1.400       .  A
C1378      H1383   1.084       .  S
C1379      C1380   1.404       .  A
C1380      C1381   1.402       .  A
C1380      H1384   1.083       .  S
C1381      C1382   1.404       .  A
C1382      H1385   1.083       .  S
C1386      C1387   1.421       .  A
C1386      C1391   1.418       .  A
C1386      C1412   1.504       .  S
C1387      C1388   1.407       .  A
C1387      H1392   1.084       .  S
C1388      C1389   1.403       .  A
C1389      C1390   1.402       .  A
C1389      H1393   1.083       .  S
C1390      C1391   1.402       .  A
C1391      H1394   1.078       .  S
C1395      C1396   1.344       .  D
C1396      C1897   1.494       .  S
C1396      C1948   1.497       .  S
C1397      C1398   1.398       .  A
C1397      C1402   1.411       .  A
C1398      C1399   1.393       .  A
C1398      H1403   1.086       .  S
C1399      C1400   1.417       .  A
C1399      C1406   1.446       .  S
C1400      C1401   1.406       .  A
C1401      C1402   1.405       .  A
C1401      H1404   1.085       .  S
C1402      C1405   1.444       .  S
C1405      N1407   1.157       .  T
C1406      N1408   1.157       .  T
C1409      C1410   1.407       .  A
C1409      C1414   1.419       .  A
C1410      C1411   1.407       .  A
C1410      H1415   1.085       .  S
C1411      C1412   1.421       .  A
C1411      C1418   1.443       .  S
C1412      C1413   1.406       .  A
C1413      C1414   1.398       .  A
C1413      H1416   1.084       .  S
C1414      C1417   1.445       .  S
C1417      N1419   1.158       .  T
C1418      N1420   1.158       .  T
C1421      C1422   1.405       .  A
C1421      C1426   1.414       .  A
C1422      C1423   1.403       .  A
C1422      H1427   1.084       .  S
C1423      C1424   1.408       .  A
C1423      C1430   1.443       .  S
C1424      C1425   1.398       .  A
C1425      C1426   1.392       .  A
C1425      H1428   1.086       .  S
C1426      C1429   1.446       .  S
C1429      N1739   1.157       .  T
C1430      N1432   1.157       .  T
N1431      C1737   1.157       .  T
C1433      C1434   1.408       .  A
C1433      C1438   1.421       .  A
C1434      C1435   1.407       .  A
C1434      H1439   1.085       .  S
C1435      C1436   1.416       .  A
C1435      C1442   1.443       .  S
C1436      C1437   1.402       .  A
C1437      C1438   1.396       .  A
C1437      H1440   1.085       .  S
C1438      C1441   1.446       .  S
C1441      N1443   1.158       .  T
C1442      N1444   1.157       .  T
C1445      C1446   1.405       .  A
C1445      C1450   1.417       .  A
C1446      C1447   1.396       .  A
C1446      H1451   1.084       .  S
C1447      C1448   1.415       .  A
C1447      C1454   1.446       .  S
C1448      C1449   1.407       .  A
C1449      C1450   1.406       .  A
C1449      H1452   1.084       .  S
C1450      C1453   1.444       .  S
C1453      N1455   1.158       .  T
C1454      N2072   1.158   1_545  T
N1456      C2070   1.158       .  T
C1457      C1458   1.407       .  A
C1457      C1462   1.420       .  A
C1458      C1459   1.405       .  A
C1458      H1463   1.085       .  S
C1459      C1460   1.414       .  A
C1459      C1466   1.444       .  S
C1460      C1461   1.400       .  A
C1461      C1462   1.396       .  A
C1461      H1464   1.086       .  S
C1462      C1465   1.445       .  S
C1465      N1467   1.157       .  T
C1466      N1468   1.157       .  T
C1469      C1470   1.407       .  A
C1469      C1474   1.421       .  A
C1470      C1471   1.394       .  A
C1470      H1475   1.084       .  S
C1471      C1472   1.416       .  A
C1471      C1478   1.446       .  S
C1472      C1473   1.405       .  A
C1473      C1474   1.406       .  A
C1473      H1476   1.085       .  S
C1474      C1477   1.443       .  S
C1477      N1479   1.158       .  T
C1478      N1480   1.158       .  T
C1481      C1482   1.401       .  A
C1481      C1486   1.411       .  A
C1482      C1483   1.392       .  A
C1482      H1487   1.085       .  S
C1483      C1484   1.408       .  A
C1483      C1490   1.446       .  S
C1484      C1485   1.403       .  A
C1485      C1486   1.404       .  A
C1485      H1488   1.084       .  S
C1486      C1489   1.444       .  S
C1489      N1491   1.157       .  T
C1490      N1492   1.157       .  T
C1493      C1494   1.406       .  A
C1493      C1498   1.421       .  A
C1494      C1495   1.401       .  A
C1494      H1499   1.083       .  S
C1495      C1496   1.412       .  A
C1495      C1502   1.444       .  S
C1496      C1497   1.399       .  A
C1497      C1498   1.400       .  A
C1497      H1500   1.085       .  S
C1498      C1501   1.445       .  S
C1501      N1503   1.158       .  T
C1502      N1504   1.157       .  T
C1505      C1506   1.409       .  A
C1505      C1510   1.415       .  A
C1506      C1507   1.397       .  A
C1506      H1511   1.085       .  S
C1507      C1508   1.407       .  A
C1507      C1514   1.445       .  S
C1508      C1509   1.403       .  A
C1509      C1510   1.403       .  A
C1509      H1512   1.086       .  S
C1510      C1513   1.443       .  S
C1513      N1515   1.157       .  T
C1514      N1516   1.157       .  T
C1517      C1518   1.412       .  A
C1517      C1522   1.420       .  A
C1518      C1519   1.405       .  A
C1518      H1523   1.082       .  S
C1519      C1520   1.415       .  A
C1519      C1526   1.445       .  S
C1520      C1521   1.404       .  A
C1521      C1522   1.393       .  A
C1521      H1524   1.085       .  S
C1522      C1525   1.446       .  S
C1525      N1527   1.158       .  T
C1526      N1528   1.158       .  T
C1529      C1530   1.412       .  A
C1529      C1534   1.420       .  A
C1530      C1531   1.399       .  A
C1530      H1535   1.084       .  S
C1531      C1532   1.406       .  A
C1531      C1538   1.445       .  S
C1532      C1533   1.403       .  A
C1533      C1534   1.406       .  A
C1533      H1536   1.085       .  S
C1534      C1537   1.443       .  S
C1537      N1539   1.158       .  T
C1538      N1540   1.157       .  T
C1541      C1542   1.347       .  D
C1541      C1687   1.490       .  S
C1541      C1696   1.499       .  S
C1542      C1598   1.504       .  S
C1542      C1629   1.499       .  S
C1543      C1544   1.346       .  D
C1543      C1600   1.493       .  S
C1543      C1631   1.497       .  S
C1545      C1546   1.345       .  D
C1546      C1549   1.494       .  S
C1546      C1560   1.488       .  S
C1547      C1548   1.416       .  A
C1547      C1552   1.423       .  A
C1547      C1837   1.503       .  S
C1548      C1549   1.402       .  A
C1548      H1553   1.084       .  S
C1549      C1550   1.401       .  A
C1550      C1551   1.400   1_545  A
C1550      H1554   1.083   1_545  S
C1551      C2181   1.507       .  S
C1551      C1552   1.408   1_565  A
C1552      H1555   1.078   1_545  S
C1556      C1557   1.419       .  A
C1556      C1561   1.414       .  A
C1556      C1825   1.501       .  S
C1557      C1558   1.404   1_545  A
C1557      H1562   1.081   1_545  S
C1558      C2181   1.502       .  S
C1558      C1559   1.401   1_565  A
C1559      C1560   1.402       .  A
C1559      H1563   1.083   1_545  S
C1560      C1561   1.401       .  A
C1561      H1564   1.083       .  S
C1565      C1566   1.347       .  D
C1565      C2167   1.507       .  S
C1565      C2174   1.502       .  S
C1566      C1689   1.499       .  S
C1566      C1698   1.505       .  S
C1567      C1568   1.412       .  A
C1567      C1572   1.419       .  A
C1567      C1813   1.490       .  S
C1568      C1569   1.399       .  A
C1568      H1573   1.084       .  S
C1569      C1570   1.402       .  A
C1570      C1571   1.401       .  A
C1570      H1574   1.083       .  S
C1571      C1585   1.501       .  S
C1571      C1572   1.406       .  A
C1572      H1575   1.081       .  S
C1576      C1577   1.421       .  A
C1576      C1581   1.412       .  A
C1576      C1801   1.495       .  S
C1577      C1578   1.407       .  A
C1577      H1582   1.081       .  S
C1578      C1579   1.401       .  A
C1579      C1580   1.402       .  A
C1579      H1583   1.083       .  S
C1580      C1585   1.494       .  S
C1580      C1581   1.400       .  A
C1581      H1584   1.084       .  S
C1585      C1586   1.345       .  D
C1586      C1591   1.497       .  S
C1586      C1638   1.501       .  S
C1587      C1588   1.406       .  A
C1587      C1592   1.409       .  A
C1587      C1792   1.468       .  S
C1588      C1589   1.402   1_545  A
C1588      H1593   1.083   1_545  S
C1589      C2320   1.494       .  S
C1589      C1590   1.405   1_565  A
C1590      C1591   1.404       .  A
C1590      H1594   1.082   1_545  S
C1591      C1592   1.402       .  A
C1592      H1595   1.084       .  S
C1596      C1597   1.418       .  A
C1596      C1601   1.419       .  A
C1596      C1777   1.502       .  S
C1597      C1598   1.402       .  A
C1597      H1602   1.077       .  S
C1598      C1599   1.400       .  A
C1599      C1600   1.401       .  A
C1599      H1603   1.083       .  S
C1600      C1601   1.403       .  A
C1601      H1604   1.083       .  S
O1605      C1613   1.263       .  A
O1606      C1607   1.264       .  A
C1607      C1828   1.491       .  S
C1607      O1608   1.260       .  A
O1609      C1610   1.268       .  A
C1610      C1753   1.490       .  S
C1610      O1611   1.263       .  A
O1612      C1613   1.262       .  A
C1613      C1765   1.490       .  S
O1614      C1622   1.264       .  A
O1614     Cr1623   1.995   1_556  S
O1615      C1616   1.262       .  A
O1615     Cr1623   1.984   1_556  S
C1616      C1840   1.478       .  S
C1616      O1617   1.265       .  A
O1617     Cr1624   2.002       .  S
O1618      C1619   1.258       .  A
O1618     Cr1624   1.983       .  S
C1619      C1789   1.468       .  S
C1619      O1620   1.261       .  A
O1620     Cr1625   1.992       .  S
O1621      C1622   1.265       .  A
O1621     Cr1625   1.991       .  S
C1622      C1780   1.491       .  S
Cr1623     O1626   1.766   1_554  S
Cr1624     O1626   1.768       .  S
Cr1625     O1626   1.769       .  S
C1627      C1628   1.415       .  A
C1627      C1632   1.412       .  A
C1627      C1768   1.486       .  S
C1628      C1629   1.405       .  A
C1628      H1633   1.084       .  S
C1629      C1630   1.403       .  A
C1630      C1631   1.403       .  A
C1630      H1634   1.083       .  S
C1631      C1632   1.401       .  A
C1632      H1635   1.082       .  S
C1636      C1637   1.416       .  A
C1636      C1641   1.415       .  A
C1636      C1756   1.490       .  S
C1637      C1638   1.406       .  A
C1637      H1642   1.083       .  S
C1638      C1639   1.401       .  A
C1639      C1640   1.401   1_545  A
C1639      H1643   1.083   1_545  S
C1640      C2320   1.497       .  S
C1640      C1641   1.403   1_565  A
C1641      H1644   1.083   1_545  S
C1645      C1646   1.415       .  A
C1645      C1650   1.417       .  A
C1645      C1744   1.494       .  S
C1646      C1647   1.403       .  A
C1646      H1651   1.081       .  S
C1647      C1703   1.500       .  S
C1647      C1648   1.402       .  A
C1648      C1649   1.403       .  A
C1648      H1652   1.083       .  S
C1649      C1650   1.405       .  A
C1650      H1653   1.084       .  S
C1654      C1655   1.408       .  A
C1654      C1659   1.406       .  A
C1654      C1732   1.467       .  S
C1655      C1656   1.402       .  A
C1655      H1660   1.084       .  S
C1656      C1703   1.496       .  S
C1656      C1657   1.403       .  A
C1657      C1658   1.404       .  A
C1657      H1661   1.083       .  S
C1658      C1659   1.400       .  A
C1659      H1662   1.084       .  S
O1663      C1671   1.267       .  A
O1664      C1665   1.262       .  A
C1665      C1804   1.477       .  S
C1665      O1666   1.261       .  A
O1667      C1668   1.258       .  A
C1668      C1729   1.473       .  S
C1668      O1669   1.259       .  A
O1670      C1671   1.267       .  A
C1671      C1717   1.498       .  S
O1672      C1680   1.260       .  A
O1672     Cr1681   1.991       .  S
O1673      C1674   1.263       .  A
O1673     Cr1681   1.994       .  S
C1674      C1816   1.473       .  S
C1674      O1675   1.261       .  A
O1675     Cr1682   1.978   1_556  S
O1676      C1677   1.265       .  A
O1676     Cr1682   1.998   1_556  S
C1677      C1741   1.496       .  S
C1677      O1678   1.267       .  A
O1678     Cr1683   1.995       .  S
O1679      C1680   1.259       .  A
O1679     Cr1683   1.984       .  S
C1680      C1708   1.480       .  S
Cr1681     O1684   1.772   1_556  S
Cr1682     O1684   1.771       .  S
Cr1683     O1684   1.773   1_556  S
C1685      C1686   1.407       .  A
C1685      C1690   1.412       .  A
C1685      C1705   1.474       .  S
C1686      C1687   1.400       .  A
C1686      H1691   1.084       .  S
C1687      C1688   1.404       .  A
C1688      C1689   1.402       .  A
C1688      H1692   1.083       .  S
C1689      C1690   1.404       .  A
C1690      H1693   1.083       .  S
C1694      C1695   1.421       .  A
C1694      C1699   1.418       .  A
C1694      C1720   1.504       .  S
C1695      C1696   1.407       .  A
C1695      H1700   1.084       .  S
C1696      C1697   1.403       .  A
C1697      C1698   1.402       .  A
C1697      H1701   1.083       .  S
C1698      C1699   1.402       .  A
C1699      H1702   1.078       .  S
C1703      C1704   1.344       .  D
C1704      C2205   1.494       .  S
C1704      C2256   1.497       .  S
C1705      C1706   1.398       .  A
C1705      C1710   1.411       .  A
C1706      C1707   1.393       .  A
C1706      H1711   1.086       .  S
C1707      C1708   1.417       .  A
C1707      C1714   1.446       .  S
C1708      C1709   1.406       .  A
C1709      C1710   1.405       .  A
C1709      H1712   1.085       .  S
C1710      C1713   1.444       .  S
C1713      N1715   1.157       .  T
C1714      N1716   1.157       .  T
C1717      C1718   1.407       .  A
C1717      C1722   1.419       .  A
C1718      C1719   1.407       .  A
C1718      H1723   1.085       .  S
C1719      C1720   1.421       .  A
C1719      C1726   1.443       .  S
C1720      C1721   1.406       .  A
C1721      C1722   1.398       .  A
C1721      H1724   1.084       .  S
C1722      C1725   1.445       .  S
C1725      N1727   1.158       .  T
C1726      N1728   1.158       .  T
C1729      C1730   1.405       .  A
C1729      C1734   1.414       .  A
C1730      C1731   1.403       .  A
C1730      H1735   1.084       .  S
C1731      C1732   1.408       .  A
C1731      C1738   1.443       .  S
C1732      C1733   1.398       .  A
C1733      C1734   1.392       .  A
C1733      H1736   1.086       .  S
C1734      C1737   1.446       .  S
C1738      N1740   1.157       .  T
C1741      C1742   1.408       .  A
C1741      C1746   1.421       .  A
C1742      C1743   1.407       .  A
C1742      H1747   1.085       .  S
C1743      C1744   1.416       .  A
C1743      C1750   1.443       .  S
C1744      C1745   1.402       .  A
C1745      C1746   1.396       .  A
C1745      H1748   1.085       .  S
C1746      C1749   1.446       .  S
C1749      N1751   1.158       .  T
C1750      N1752   1.157       .  T
C1753      C1754   1.405       .  A
C1753      C1758   1.417       .  A
C1754      C1755   1.396       .  A
C1754      H1759   1.084       .  S
C1755      C1756   1.415       .  A
C1755      C1762   1.446       .  S
C1756      C1757   1.407       .  A
C1757      C1758   1.406       .  A
C1757      H1760   1.084       .  S
C1758      C1761   1.444       .  S
C1761      N1763   1.158       .  T
C1762      N2380   1.158   1_545  T
N1764      C2378   1.158       .  T
C1765      C1766   1.407       .  A
C1765      C1770   1.420       .  A
C1766      C1767   1.405       .  A
C1766      H1771   1.085       .  S
C1767      C1768   1.414       .  A
C1767      C1774   1.444       .  S
C1768      C1769   1.400       .  A
C1769      C1770   1.396       .  A
C1769      H1772   1.086       .  S
C1770      C1773   1.445       .  S
C1773      N1775   1.157       .  T
C1774      N1776   1.157       .  T
C1777      C1778   1.407       .  A
C1777      C1782   1.421       .  A
C1778      C1779   1.394       .  A
C1778      H1783   1.084       .  S
C1779      C1780   1.416       .  A
C1779      C1786   1.446       .  S
C1780      C1781   1.405       .  A
C1781      C1782   1.406       .  A
C1781      H1784   1.085       .  S
C1782      C1785   1.443       .  S
C1785      N1787   1.158       .  T
C1786      N1788   1.158       .  T
C1789      C1790   1.401       .  A
C1789      C1794   1.411       .  A
C1790      C1791   1.392       .  A
C1790      H1795   1.085       .  S
C1791      C1792   1.408       .  A
C1791      C1798   1.446       .  S
C1792      C1793   1.403       .  A
C1793      C1794   1.404       .  A
C1793      H1796   1.084       .  S
C1794      C1797   1.444       .  S
C1797      N1799   1.157       .  T
C1798      N1800   1.157       .  T
C1801      C1802   1.406       .  A
C1801      C1806   1.421       .  A
C1802      C1803   1.401       .  A
C1802      H1807   1.083       .  S
C1803      C1804   1.412       .  A
C1803      C1810   1.444       .  S
C1804      C1805   1.399       .  A
C1805      C1806   1.400       .  A
C1805      H1808   1.085       .  S
C1806      C1809   1.445       .  S
C1809      N1811   1.158       .  T
C1810      N1812   1.157       .  T
C1813      C1814   1.409       .  A
C1813      C1818   1.415       .  A
C1814      C1815   1.397       .  A
C1814      H1819   1.085       .  S
C1815      C1816   1.407       .  A
C1815      C1822   1.445       .  S
C1816      C1817   1.403       .  A
C1817      C1818   1.403       .  A
C1817      H1820   1.086       .  S
C1818      C1821   1.443       .  S
C1821      N1823   1.157       .  T
C1822      N1824   1.157       .  T
C1825      C1826   1.412       .  A
C1825      C1830   1.420       .  A
C1826      C1827   1.405       .  A
C1826      H1831   1.082       .  S
C1827      C1828   1.415       .  A
C1827      C1834   1.445       .  S
C1828      C1829   1.404       .  A
C1829      C1830   1.393       .  A
C1829      H1832   1.085       .  S
C1830      C1833   1.446       .  S
C1833      N1835   1.158       .  T
C1834      N1836   1.158       .  T
C1837      C1838   1.412       .  A
C1837      C1842   1.420       .  A
C1838      C1839   1.399       .  A
C1838      H1843   1.084       .  S
C1839      C1840   1.406       .  A
C1839      C1846   1.445       .  S
C1840      C1841   1.403       .  A
C1841      C1842   1.406       .  A
C1841      H1844   1.085       .  S
C1842      C1845   1.443       .  S
C1845      N1847   1.158       .  T
C1846      N1848   1.157       .  T
C1849      C1850   1.347       .  D
C1849      C1995   1.490       .  S
C1849      C2004   1.499       .  S
C1850      C1906   1.504       .  S
C1850      C1937   1.499       .  S
C1851      C1852   1.346       .  D
C1851      C1908   1.493       .  S
C1851      C1939   1.497       .  S
C1853      C1854   1.345       .  D
C1854      C1857   1.494       .  S
C1854      C1868   1.488       .  S
C1855      C1856   1.416       .  A
C1855      C1860   1.423       .  A
C1855      C2145   1.503       .  S
C1856      C1857   1.402       .  A
C1856      H1861   1.084       .  S
C1857      C1858   1.401       .  A
C1858      C1859   1.400       .  A
C1858      H1862   1.083       .  S
C1859      C1860   1.408       .  A
C1860      H1863   1.078       .  S
C1864      C1865   1.419       .  A
C1864      C1869   1.414       .  A
C1864      C2133   1.501       .  S
C1865      C1866   1.404       .  A
C1865      H1870   1.081       .  S
C1866      C1867   1.401       .  A
C1867      C1868   1.402       .  A
C1867      H1871   1.083       .  S
C1868      C1869   1.401       .  A
C1869      H1872   1.083       .  S
C1873      C1874   1.347       .  D
C1874      C1997   1.499       .  S
C1874      C2006   1.505       .  S
C1875      C1876   1.412       .  A
C1875      C1880   1.419       .  A
C1875      C2121   1.490       .  S
C1876      C1877   1.399       .  A
C1876      H1881   1.084       .  S
C1877      C1878   1.402       .  A
C1878      C1879   1.401       .  A
C1878      H1882   1.083       .  S
C1879      C1893   1.501       .  S
C1879      C1880   1.406       .  A
C1880      H1883   1.081       .  S
C1884      C1885   1.421       .  A
C1884      C1889   1.412       .  A
C1884      C2109   1.495       .  S
C1885      C1886   1.407       .  A
C1885      H1890   1.081       .  S
C1886      C1887   1.401       .  A
C1887      C1888   1.402       .  A
C1887      H1891   1.083       .  S
C1888      C1893   1.494       .  S
C1888      C1889   1.400       .  A
C1889      H1892   1.084       .  S
C1893      C1894   1.345       .  D
C1894      C1899   1.497       .  S
C1894      C1946   1.501       .  S
C1895      C1896   1.406       .  A
C1895      C1900   1.409       .  A
C1895      C2100   1.468       .  S
C1896      C1897   1.402       .  A
C1896      H1901   1.083       .  S
C1897      C1898   1.405       .  A
C1898      C1899   1.404       .  A
C1898      H1902   1.082       .  S
C1899      C1900   1.402       .  A
C1900      H1903   1.084       .  S
C1904      C1905   1.418       .  A
C1904      C1909   1.419       .  A
C1904      C2085   1.502       .  S
C1905      C1906   1.402       .  A
C1905      H1910   1.077       .  S
C1906      C1907   1.400       .  A
C1907      C1908   1.401       .  A
C1907      H1911   1.083       .  S
C1908      C1909   1.403       .  A
C1909      H1912   1.083       .  S
O1913      C1921   1.263       .  A
O1913     Cr2239   1.992       .  S
O1914      C1915   1.264       .  A
O1914     Cr2239   1.989       .  S
C1915      C2136   1.491       .  S
C1915      O1916   1.260       .  A
O1916     Cr2240   1.984   1_554  S
O1917      C1918   1.268       .  A
O1917     Cr2240   2.005   1_554  S
C1918      C2061   1.490       .  S
C1918      O1919   1.263       .  A
O1919     Cr2241   1.984   1_554  S
O1920      C1921   1.262       .  A
O1920     Cr2241   1.993   1_554  S
C1921      C2073   1.490       .  S
O1922      C1930   1.264       .  A
O1922     Cr1931   1.995       .  S
O1923      C1924   1.262       .  A
O1923     Cr1931   1.984       .  S
C1924      C2148   1.478       .  S
C1924      O1925   1.265       .  A
O1925     Cr1932   2.002       .  S
O1926      C1927   1.258       .  A
O1926     Cr1932   1.983       .  S
C1927      C2097   1.468       .  S
C1927      O1928   1.261       .  A
O1928     Cr1933   1.992       .  S
O1929      C1930   1.265       .  A
O1929     Cr1933   1.991       .  S
C1930      C2088   1.491       .  S
Cr1931     O2221   1.992       .  S
Cr1931     O2222   1.989       .  S
Cr1931     O1934   1.766       .  S
Cr1932     O2224   1.984       .  S
Cr1932     O2225   2.005       .  S
Cr1932     O1934   1.768       .  S
Cr1933     O2227   1.984       .  S
Cr1933     O2228   1.993       .  S
Cr1933     O1934   1.769       .  S
C1935      C1936   1.415       .  A
C1935      C1940   1.412       .  A
C1935      C2076   1.486       .  S
C1936      C1937   1.405       .  A
C1936      H1941   1.084       .  S
C1937      C1938   1.403       .  A
C1938      C1939   1.403       .  A
C1938      H1942   1.083       .  S
C1939      C1940   1.401       .  A
C1940      H1943   1.082       .  S
C1944      C1945   1.416       .  A
C1944      C1949   1.415       .  A
C1944      C2064   1.490       .  S
C1945      C1946   1.406       .  A
C1945      H1950   1.083       .  S
C1946      C1947   1.401       .  A
C1947      C1948   1.401       .  A
C1947      H1951   1.083       .  S
C1948      C1949   1.403       .  A
C1949      H1952   1.083       .  S
C1953      C1954   1.415       .  A
C1953      C1958   1.417       .  A
C1953      C2052   1.494       .  S
C1954      C1955   1.403       .  A
C1954      H1959   1.081       .  S
C1955      C2011   1.500       .  S
C1955      C1956   1.402       .  A
C1956      C1957   1.403       .  A
C1956      H1960   1.083       .  S
C1957      C1958   1.405       .  A
C1958      H1961   1.084       .  S
C1962      C1963   1.408       .  A
C1962      C1967   1.406       .  A
C1962      C2040   1.467       .  S
C1963      C1964   1.402       .  A
C1963      H1968   1.084       .  S
C1964      C2011   1.496       .  S
C1964      C1965   1.403       .  A
C1965      C1966   1.404       .  A
C1965      H1969   1.083       .  S
C1966      C1967   1.400       .  A
C1967      H1970   1.084       .  S
O1971      C1979   1.267       .  A
O1971     Cr2297   2.002   1_554  S
O1972      C1973   1.262       .  A
O1972     Cr2297   1.986   1_554  S
C1973      C2112   1.477       .  S
C1973      O1974   1.261       .  A
O1974     Cr2298   1.990       .  S
O1975      C1976   1.258       .  A
O1975     Cr2298   1.986       .  S
C1976      C2037   1.473       .  S
C1976      O1977   1.259       .  A
O1977     Cr2299   1.987   1_554  S
O1978      C1979   1.267       .  A
O1978     Cr2299   1.994   1_554  S
C1979      C2025   1.498       .  S
O1980      C1988   1.260       .  A
O1980     Cr1989   1.991       .  S
O1981      C1982   1.263       .  A
O1981     Cr1989   1.994       .  S
C1982      C2124   1.473       .  S
C1982      O1983   1.261       .  A
O1983     Cr1990   1.978       .  S
O1984      C1985   1.265       .  A
O1984     Cr1990   1.998       .  S
C1985      C2049   1.496       .  S
C1985      O1986   1.267       .  A
O1986     Cr1991   1.995       .  S
O1987      C1988   1.259       .  A
O1987     Cr1991   1.984       .  S
C1988      C2016   1.480       .  S
Cr1989     O2279   2.002       .  S
Cr1989     O2280   1.986       .  S
Cr1989     O1992   1.772       .  S
Cr1990     O2282   1.990       .  S
Cr1990     O2283   1.986       .  S
Cr1990     O1992   1.771       .  S
Cr1991     O2285   1.987       .  S
Cr1991     O2286   1.994       .  S
Cr1991     O1992   1.773       .  S
C1993      C1994   1.407       .  A
C1993      C1998   1.412       .  A
C1993      C2013   1.474       .  S
C1994      C1995   1.400       .  A
C1994      H1999   1.084       .  S
C1995      C1996   1.404       .  A
C1996      C1997   1.402       .  A
C1996      H2000   1.083       .  S
C1997      C1998   1.404       .  A
C1998      H2001   1.083       .  S
C2002      C2003   1.421       .  A
C2002      C2007   1.418       .  A
C2002      C2028   1.504       .  S
C2003      C2004   1.407       .  A
C2003      H2008   1.084       .  S
C2004      C2005   1.403       .  A
C2005      C2006   1.402       .  A
C2005      H2009   1.083       .  S
C2006      C2007   1.402       .  A
C2007      H2010   1.078       .  S
C2011      C2012   1.344       .  D
C2013      C2014   1.398       .  A
C2013      C2018   1.411       .  A
C2014      C2015   1.393       .  A
C2014      H2019   1.086       .  S
C2015      C2016   1.417       .  A
C2015      C2022   1.446       .  S
C2016      C2017   1.406       .  A
C2017      C2018   1.405       .  A
C2017      H2020   1.085       .  S
C2018      C2021   1.444       .  S
C2021      N2023   1.157       .  T
C2022      N2024   1.157       .  T
C2025      C2026   1.407       .  A
C2025      C2030   1.419       .  A
C2026      C2027   1.407       .  A
C2026      H2031   1.085       .  S
C2027      C2028   1.420       .  A
C2027      C2034   1.443       .  S
C2028      C2029   1.406       .  A
C2029      C2030   1.398       .  A
C2029      H2032   1.084       .  S
C2030      C2033   1.445       .  S
C2033      N2035   1.158       .  T
C2034      N2036   1.158       .  T
C2037      C2038   1.405       .  A
C2037      C2042   1.414       .  A
C2038      C2039   1.403       .  A
C2038      H2043   1.084       .  S
C2039      C2040   1.408       .  A
C2039      C2046   1.443       .  S
C2040      C2041   1.398       .  A
C2041      C2042   1.392       .  A
C2041      H2044   1.086       .  S
C2042      C2045   1.446       .  S
C2045      N2355   1.157       .  T
C2046      N2048   1.157       .  T
N2047      C2353   1.157       .  T
C2049      C2050   1.408       .  A
C2049      C2054   1.421       .  A
C2050      C2051   1.407       .  A
C2050      H2055   1.085       .  S
C2051      C2052   1.416       .  A
C2051      C2058   1.443       .  S
C2052      C2053   1.402       .  A
C2053      C2054   1.396       .  A
C2053      H2056   1.085       .  S
C2054      C2057   1.446       .  S
C2057      N2059   1.158       .  T
C2058      N2060   1.157       .  T
C2061      C2062   1.405       .  A
C2061      C2066   1.417       .  A
C2062      C2063   1.396       .  A
C2062      H2067   1.084       .  S
C2063      C2064   1.415       .  A
C2063      C2070   1.446       .  S
C2064      C2065   1.407       .  A
C2065      C2066   1.406       .  A
C2065      H2068   1.084       .  S
C2066      C2069   1.444       .  S
C2069      N2071   1.158       .  T
C2073      C2074   1.407       .  A
C2073      C2078   1.420       .  A
C2074      C2075   1.405       .  A
C2074      H2079   1.085       .  S
C2075      C2076   1.414       .  A
C2075      C2082   1.444       .  S
C2076      C2077   1.400       .  A
C2077      C2078   1.396       .  A
C2077      H2080   1.086       .  S
C2078      C2081   1.445       .  S
C2081      N2083   1.157       .  T
C2082      N2084   1.157       .  T
C2085      C2086   1.407       .  A
C2085      C2090   1.421       .  A
C2086      C2087   1.394       .  A
C2086      H2091   1.084       .  S
C2087      C2088   1.416       .  A
C2087      C2094   1.446       .  S
C2088      C2089   1.405       .  A
C2089      C2090   1.406       .  A
C2089      H2092   1.085       .  S
C2090      C2093   1.443       .  S
C2093      N2095   1.158       .  T
C2094      N2096   1.158       .  T
C2097      C2098   1.401       .  A
C2097      C2102   1.411       .  A
C2098      C2099   1.392       .  A
C2098      H2103   1.085       .  S
C2099      C2100   1.408       .  A
C2099      C2106   1.446       .  S
C2100      C2101   1.403       .  A
C2101      C2102   1.404       .  A
C2101      H2104   1.084       .  S
C2102      C2105   1.444       .  S
C2105      N2107   1.157       .  T
C2106      N2108   1.157       .  T
C2109      C2110   1.406       .  A
C2109      C2114   1.421       .  A
C2110      C2111   1.401       .  A
C2110      H2115   1.083       .  S
C2111      C2112   1.412       .  A
C2111      C2118   1.444       .  S
C2112      C2113   1.399       .  A
C2113      C2114   1.400       .  A
C2113      H2116   1.085       .  S
C2114      C2117   1.445       .  S
C2117      N2119   1.158       .  T
C2118      N2120   1.157       .  T
C2121      C2122   1.409       .  A
C2121      C2126   1.415       .  A
C2122      C2123   1.397       .  A
C2122      H2127   1.085       .  S
C2123      C2124   1.407       .  A
C2123      C2130   1.445       .  S
C2124      C2125   1.403       .  A
C2125      C2126   1.403       .  A
C2125      H2128   1.086       .  S
C2126      C2129   1.443       .  S
C2129      N2131   1.157       .  T
C2130      N2132   1.157       .  T
C2133      C2134   1.412       .  A
C2133      C2138   1.420       .  A
C2134      C2135   1.405       .  A
C2134      H2139   1.082       .  S
C2135      C2136   1.415       .  A
C2135      C2142   1.445       .  S
C2136      C2137   1.404       .  A
C2137      C2138   1.393       .  A
C2137      H2140   1.085       .  S
C2138      C2141   1.446       .  S
C2141      N2143   1.158       .  T
C2142      N2144   1.158       .  T
C2145      C2146   1.412       .  A
C2145      C2150   1.420       .  A
C2146      C2147   1.399       .  A
C2146      H2151   1.084       .  S
C2147      C2148   1.406       .  A
C2147      C2154   1.445       .  S
C2148      C2149   1.403       .  A
C2149      C2150   1.406       .  A
C2149      H2152   1.085       .  S
C2150      C2153   1.443       .  S
C2153      N2155   1.158       .  T
C2154      N2156   1.157       .  T
C2157      C2158   1.347       .  D
C2157      C2303   1.490       .  S
C2157      C2312   1.499       .  S
C2158      C2214   1.504       .  S
C2158      C2245   1.499       .  S
C2159      C2160   1.346       .  D
C2159      C2216   1.493       .  S
C2159      C2247   1.497       .  S
C2161      C2162   1.345       .  D
C2162      C2165   1.494       .  S
C2162      C2176   1.488       .  S
C2163      C2164   1.416       .  A
C2163      C2168   1.423       .  A
C2163      C2453   1.503       .  S
C2164      C2165   1.402       .  A
C2164      H2169   1.084       .  S
C2165      C2166   1.401       .  A
C2166      C2167   1.400       .  A
C2166      H2170   1.083       .  S
C2167      C2168   1.408       .  A
C2168      H2171   1.078       .  S
C2172      C2173   1.419       .  A
C2172      C2177   1.414       .  A
C2172      C2441   1.501       .  S
C2173      C2174   1.404       .  A
C2173      H2178   1.081       .  S
C2174      C2175   1.401       .  A
C2175      C2176   1.402       .  A
C2175      H2179   1.083       .  S
C2176      C2177   1.401       .  A
C2177      H2180   1.083       .  S
C2181      C2182   1.347       .  D
C2182      C2305   1.499       .  S
C2182      C2314   1.505       .  S
C2183      C2184   1.412       .  A
C2183      C2188   1.419       .  A
C2183      C2429   1.490       .  S
C2184      C2185   1.399       .  A
C2184      H2189   1.084       .  S
C2185      C2186   1.402       .  A
C2186      C2187   1.401       .  A
C2186      H2190   1.083       .  S
C2187      C2201   1.501       .  S
C2187      C2188   1.406       .  A
C2188      H2191   1.081       .  S
C2192      C2193   1.421       .  A
C2192      C2197   1.412       .  A
C2192      C2417   1.495       .  S
C2193      C2194   1.407       .  A
C2193      H2198   1.081       .  S
C2194      C2195   1.401       .  A
C2195      C2196   1.402       .  A
C2195      H2199   1.083       .  S
C2196      C2201   1.494       .  S
C2196      C2197   1.400       .  A
C2197      H2200   1.084       .  S
C2201      C2202   1.345       .  D
C2202      C2207   1.497       .  S
C2202      C2254   1.501       .  S
C2203      C2204   1.406       .  A
C2203      C2208   1.409       .  A
C2203      C2408   1.468       .  S
C2204      C2205   1.402       .  A
C2204      H2209   1.083       .  S
C2205      C2206   1.405       .  A
C2206      C2207   1.404       .  A
C2206      H2210   1.082       .  S
C2207      C2208   1.402       .  A
C2208      H2211   1.084       .  S
C2212      C2213   1.418       .  A
C2212      C2217   1.419       .  A
C2212      C2393   1.502       .  S
C2213      C2214   1.402       .  A
C2213      H2218   1.077       .  S
C2214      C2215   1.400       .  A
C2215      C2216   1.401       .  A
C2215      H2219   1.083       .  S
C2216      C2217   1.403       .  A
C2217      H2220   1.083       .  S
O2221      C2229   1.263       .  A
O2222      C2223   1.264       .  A
C2223      C2444   1.491       .  S
C2223      O2224   1.260       .  A
O2225      C2226   1.268       .  A
C2226      C2369   1.490       .  S
C2226      O2227   1.263       .  A
O2228      C2229   1.262       .  A
C2229      C2381   1.490       .  S
O2230      C2238   1.264       .  A
O2230     Cr2239   1.995   1_556  S
O2231      C2232   1.262       .  A
O2231     Cr2239   1.984   1_556  S
C2232      C2456   1.478       .  S
C2232      O2233   1.265       .  A
O2233     Cr2240   2.002       .  S
O2234      C2235   1.258       .  A
O2234     Cr2240   1.983       .  S
C2235      C2405   1.468       .  S
C2235      O2236   1.261       .  A
O2236     Cr2241   1.992       .  S
O2237      C2238   1.265       .  A
O2237     Cr2241   1.991       .  S
C2238      C2396   1.491       .  S
Cr2239     O2242   1.766   1_554  S
Cr2240     O2242   1.768       .  S
Cr2241     O2242   1.769       .  S
C2243      C2244   1.415       .  A
C2243      C2248   1.412       .  A
C2243      C2384   1.486       .  S
C2244      C2245   1.405       .  A
C2244      H2249   1.084       .  S
C2245      C2246   1.403       .  A
C2246      C2247   1.403       .  A
C2246      H2250   1.083       .  S
C2247      C2248   1.401       .  A
C2248      H2251   1.082       .  S
C2252      C2253   1.416       .  A
C2252      C2257   1.415       .  A
C2252      C2372   1.490       .  S
C2253      C2254   1.406       .  A
C2253      H2258   1.083       .  S
C2254      C2255   1.401       .  A
C2255      C2256   1.401       .  A
C2255      H2259   1.083       .  S
C2256      C2257   1.403       .  A
C2257      H2260   1.083       .  S
C2261      C2262   1.415       .  A
C2261      C2266   1.417       .  A
C2261      C2360   1.494       .  S
C2262      C2263   1.403       .  A
C2262      H2267   1.081       .  S
C2263      C2319   1.500       .  S
C2263      C2264   1.402       .  A
C2264      C2265   1.403       .  A
C2264      H2268   1.083       .  S
C2265      C2266   1.405       .  A
C2266      H2269   1.084       .  S
C2270      C2271   1.408       .  A
C2270      C2275   1.406       .  A
C2270      C2348   1.467       .  S
C2271      C2272   1.402       .  A
C2271      H2276   1.084       .  S
C2272      C2319   1.496       .  S
C2272      C2273   1.403       .  A
C2273      C2274   1.404       .  A
C2273      H2277   1.083       .  S
C2274      C2275   1.400       .  A
C2275      H2278   1.084       .  S
O2279      C2287   1.267       .  A
O2280      C2281   1.262       .  A
C2281      C2420   1.477       .  S
C2281      O2282   1.261       .  A
O2283      C2284   1.258       .  A
C2284      C2345   1.473       .  S
C2284      O2285   1.259       .  A
O2286      C2287   1.267       .  A
C2287      C2333   1.498       .  S
O2288      C2296   1.260       .  A
O2288     Cr2297   1.991       .  S
O2289      C2290   1.263       .  A
O2289     Cr2297   1.994       .  S
C2290      C2432   1.473       .  S
C2290      O2291   1.261       .  A
O2291     Cr2298   1.978   1_556  S
O2292      C2293   1.265       .  A
O2292     Cr2298   1.998   1_556  S
C2293      C2357   1.496       .  S
C2293      O2294   1.267       .  A
O2294     Cr2299   1.995       .  S
O2295      C2296   1.259       .  A
O2295     Cr2299   1.984       .  S
C2296      C2324   1.480       .  S
Cr2297     O2300   1.772   1_556  S
Cr2298     O2300   1.771       .  S
Cr2299     O2300   1.773   1_556  S
C2301      C2302   1.407       .  A
C2301      C2306   1.412       .  A
C2301      C2321   1.474       .  S
C2302      C2303   1.400       .  A
C2302      H2307   1.084       .  S
C2303      C2304   1.404       .  A
C2304      C2305   1.402       .  A
C2304      H2308   1.083       .  S
C2305      C2306   1.404       .  A
C2306      H2309   1.083       .  S
C2310      C2311   1.421       .  A
C2310      C2315   1.418       .  A
C2310      C2336   1.504       .  S
C2311      C2312   1.407       .  A
C2311      H2316   1.084       .  S
C2312      C2313   1.403       .  A
C2313      C2314   1.402       .  A
C2313      H2317   1.083       .  S
C2314      C2315   1.402       .  A
C2315      H2318   1.078       .  S
C2319      C2320   1.344       .  D
C2321      C2322   1.398       .  A
C2321      C2326   1.411       .  A
C2322      C2323   1.393       .  A
C2322      H2327   1.086       .  S
C2323      C2324   1.417       .  A
C2323      C2330   1.446       .  S
C2324      C2325   1.406       .  A
C2325      C2326   1.405       .  A
C2325      H2328   1.085       .  S
C2326      C2329   1.444       .  S
C2329      N2331   1.157       .  T
C2330      N2332   1.157       .  T
C2333      C2334   1.407       .  A
C2333      C2338   1.419       .  A
C2334      C2335   1.407       .  A
C2334      H2339   1.085       .  S
C2335      C2336   1.420       .  A
C2335      C2342   1.443       .  S
C2336      C2337   1.406       .  A
C2337      C2338   1.398       .  A
C2337      H2340   1.084       .  S
C2338      C2341   1.445       .  S
C2341      N2343   1.158       .  T
C2342      N2344   1.158       .  T
C2345      C2346   1.405       .  A
C2345      C2350   1.414       .  A
C2346      C2347   1.403       .  A
C2346      H2351   1.084       .  S
C2347      C2348   1.408       .  A
C2347      C2354   1.443       .  S
C2348      C2349   1.398       .  A
C2349      C2350   1.392       .  A
C2349      H2352   1.086       .  S
C2350      C2353   1.446       .  S
C2354      N2356   1.157       .  T
C2357      C2358   1.408       .  A
C2357      C2362   1.421       .  A
C2358      C2359   1.407       .  A
C2358      H2363   1.085       .  S
C2359      C2360   1.416       .  A
C2359      C2366   1.443       .  S
C2360      C2361   1.402       .  A
C2361      C2362   1.396       .  A
C2361      H2364   1.085       .  S
C2362      C2365   1.446       .  S
C2365      N2367   1.158       .  T
C2366      N2368   1.157       .  T
C2369      C2370   1.405       .  A
C2369      C2374   1.417       .  A
C2370      C2371   1.396       .  A
C2370      H2375   1.084       .  S
C2371      C2372   1.415       .  A
C2371      C2378   1.446       .  S
C2372      C2373   1.407       .  A
C2373      C2374   1.406       .  A
C2373      H2376   1.084       .  S
C2374      C2377   1.444       .  S
C2377      N2379   1.158       .  T
C2381      C2382   1.407       .  A
C2381      C2386   1.420       .  A
C2382      C2383   1.405       .  A
C2382      H2387   1.085       .  S
C2383      C2384   1.414       .  A
C2383      C2390   1.444       .  S
C2384      C2385   1.400       .  A
C2385      C2386   1.396       .  A
C2385      H2388   1.086       .  S
C2386      C2389   1.445       .  S
C2389      N2391   1.157       .  T
C2390      N2392   1.157       .  T
C2393      C2394   1.407       .  A
C2393      C2398   1.421       .  A
C2394      C2395   1.394       .  A
C2394      H2399   1.084       .  S
C2395      C2396   1.416       .  A
C2395      C2402   1.446       .  S
C2396      C2397   1.405       .  A
C2397      C2398   1.406       .  A
C2397      H2400   1.085       .  S
C2398      C2401   1.443       .  S
C2401      N2403   1.158       .  T
C2402      N2404   1.158       .  T
C2405      C2406   1.401       .  A
C2405      C2410   1.411       .  A
C2406      C2407   1.392       .  A
C2406      H2411   1.085       .  S
C2407      C2408   1.408       .  A
C2407      C2414   1.446       .  S
C2408      C2409   1.403       .  A
C2409      C2410   1.404       .  A
C2409      H2412   1.084       .  S
C2410      C2413   1.444       .  S
C2413      N2415   1.157       .  T
C2414      N2416   1.157       .  T
C2417      C2418   1.406       .  A
C2417      C2422   1.421       .  A
C2418      C2419   1.401       .  A
C2418      H2423   1.083       .  S
C2419      C2420   1.412       .  A
C2419      C2426   1.444       .  S
C2420      C2421   1.399       .  A
C2421      C2422   1.400       .  A
C2421      H2424   1.085       .  S
C2422      C2425   1.445       .  S
C2425      N2427   1.158       .  T
C2426      N2428   1.157       .  T
C2429      C2430   1.409       .  A
C2429      C2434   1.415       .  A
C2430      C2431   1.397       .  A
C2430      H2435   1.085       .  S
C2431      C2432   1.407       .  A
C2431      C2438   1.445       .  S
C2432      C2433   1.403       .  A
C2433      C2434   1.403       .  A
C2433      H2436   1.086       .  S
C2434      C2437   1.443       .  S
C2437      N2439   1.157       .  T
C2438      N2440   1.157       .  T
C2441      C2442   1.412       .  A
C2441      C2446   1.420       .  A
C2442      C2443   1.405       .  A
C2442      H2447   1.082       .  S
C2443      C2444   1.415       .  A
C2443      C2450   1.445       .  S
C2444      C2445   1.404       .  A
C2445      C2446   1.393       .  A
C2445      H2448   1.085       .  S
C2446      C2449   1.446       .  S
C2449      N2451   1.158       .  T
C2450      N2452   1.158       .  T
C2453      C2454   1.412       .  A
C2453      C2458   1.420       .  A
C2454      C2455   1.399       .  A
C2454      H2459   1.084       .  S
C2455      C2456   1.406       .  A
C2455      C2462   1.445       .  S
C2456      C2457   1.403       .  A
C2457      C2458   1.406       .  A
C2457      H2460   1.085       .  S
C2458      C2461   1.443       .  S
C2461      N2463   1.158       .  T
C2462      N2464   1.157       .  T
