geometry optimzed in LAMMPS
_audit_creation_date              2020-11-30 
_audit_creation_method            'lammps2cif' 
_symmetry_space_group_name_H-M    'P1' 
_symmetry_Int_Tables_number       1 
_symmetry_cell_setting            triclinic 
loop_ 
_symmetry_equiv_pos_as_xyz 
  x,y,z 
_cell_length_a                    47.241340018506776 
_cell_length_b                    47.61046465964073 
_cell_length_c                    31.801302579382117 
_cell_angle_alpha                 90.36267969082523 
_cell_angle_beta                  89.87736680347011 
_cell_angle_gamma                 119.69375837938668 
loop_ 
_atom_site_label 
_atom_site_type_symbol 
_atom_site_fract_x 
_atom_site_fract_y 
_atom_site_fract_z 
_atom_site_charge 
C1          C  0.36118631  0.34584301  0.24748018     0.01010
C2          C  0.34717678  0.36454443  0.24834524     0.01010
C3          C  0.47782704  0.36479935  0.25316937     0.01010
C4          C  0.44496542  0.34855792  0.25215264     0.01010
C5          C  0.47505063  0.07503870  0.24750257     0.01010
C6          C  0.44234950  0.05773576  0.24734121     0.01010
C7          C  0.37621267  0.04302285  0.32156291     0.03570
C8          C  0.40819937  0.06146256  0.30573052    -0.12580
C9          C  0.42322564  0.04522802  0.28722702     0.01070
C10         C  0.40783061  0.01169207  0.29299150    -0.11100
C11         C  0.37372472  0.99536549  0.29059939     0.03560
C12         C  0.35794030  0.01015260  0.31030425    -0.10520
H13         H  0.42040260  0.08763199  0.30615494     0.09160
H14         H  0.42025633  0.99915969  0.28173965     0.06690
H15         H  0.33169476  0.99714313  0.31402397     0.06540
C16         C  0.37613363  0.04597180  0.18129633     0.03570
C17         C  0.35694292  0.01440890  0.19779572    -0.12580
C18         C  0.37199161  0.99703817  0.21166219     0.01070
C19         C  0.40546227  0.01071317  0.20402012    -0.11100
C20         C  0.42368114  0.04446579  0.20714546     0.03560
C21         C  0.41013008  0.06161581  0.18847373    -0.10520
H22         H  0.33087697  0.00414495  0.20164296     0.09160
H23         H  0.41716066  0.99708047  0.21329311     0.06690
H24         H  0.42593238  0.08692158  0.18186361     0.06540
C25         C  0.34375336  0.44470160  0.24955343     0.01010
C26         C  0.35958581  0.47718327  0.25058854     0.01010
C27         C  0.04144913  0.12659534  0.31892503     0.03570
C28         C  0.06080386  0.11374746  0.30375477    -0.12580
C29         C  0.04530573  0.08280272  0.28537413     0.01070
C30         C  0.01146698  0.06418537  0.29079655    -0.11100
C31         C  0.99430445  0.08107801  0.28713575     0.03560
C32         C  0.00861638  0.11186582  0.30578229    -0.10740
H33         H  0.08715483  0.12781265  0.30494566     0.09160
H34         H  0.99950871  0.03925070  0.28029332     0.06690
H35         H  0.99512047  0.12472610  0.30829145     0.06540
C36         C  0.04078969  0.12668455  0.17536521     0.03570
C37         C  0.06000804  0.11295964  0.18758330    -0.12580
C38         C  0.04471780  0.08212547  0.20585195     0.01070
C39         C  0.01070388  0.06409053  0.20202151    -0.11100
C40         C  0.99421035  0.08154524  0.20773103     0.03560
C41         C  0.00850718  0.11254245  0.19012126    -0.10520
H42         H  0.08630024  0.12664540  0.18483024     0.09160
H43         H  0.99865145  0.03915760  0.21214643     0.06690
H44         H  0.99531094  0.12575230  0.18925809     0.06540
C45         C  0.05852021  0.07686015  0.24550925     0.01010
C46         C  0.07426274  0.05981739  0.24574074     0.01010
C47         C  0.12565806  0.04648509  0.32192735     0.03570
C48         C  0.11260919  0.06429099  0.30264726    -0.12580
C49         C  0.08105168  0.04792935  0.28575260     0.01070
C50         C  0.06262956  0.01460651  0.29312091    -0.11100
C51         C  0.08005345  0.99789418  0.29151833     0.03560
C52         C  0.11053879  0.01298316  0.31166074    -0.10520
H53         H  0.12732451  0.09022257  0.29889450     0.09160
H54         H  0.03753820  0.00203208  0.28260537     0.06690
H55         H  0.12250613  0.99898350  0.31684660     0.06540
C56         C  0.37787152  0.29449113  0.31980964     0.03570
C57         C  0.35863241  0.30627487  0.30093447    -0.12580
C58         C  0.37347339  0.33834435  0.28663278     0.01070
C59         C  0.40682685  0.35798426  0.29463743    -0.11100
C60         C  0.42523911  0.34239135  0.29163303     0.03560
C61         C  0.41171996  0.31175243  0.31013056    -0.10520
H62         H  0.33295448  0.29035066  0.29497010     0.09160
H63         H  0.41828605  0.38304780  0.28510189     0.06690
H64         H  0.42732276  0.30141456  0.31388649     0.06540
O65         O  0.23628077  0.08176780  0.46232083    -0.84910
O66         O  0.29461772  0.08508114  0.44510073    -0.81950
C67         C  0.32477635  0.09540325  0.44371149     0.98560
O68         O  0.34365290  0.11642337  0.46969314    -0.81990
O69         O  0.34021193  0.17044023  0.44621987    -0.84630
C70         C  0.32900130  0.18944181  0.44174345     1.03080
O71         O  0.30748550  0.18810800  0.46684622    -0.77390
O72         O  0.25177280  0.13201835  0.44564339    -0.77580
C73         C  0.23429328  0.10206343  0.43888257     1.03030
O74         O  0.24929505  0.08275709  0.05083354    -0.84900
O75         O  0.30525030  0.08112640  0.03301488    -0.81970
C76         C  0.32514910  0.09995602  0.06026860     0.98580
O77         O  0.33771764  0.13018806  0.05613571    -0.81990
O78         O  0.34295679  0.18820221  0.03264699    -0.84600
C79         C  0.32385936  0.19134443  0.05750296     1.03050
O80         O  0.29352625  0.17246105  0.05460614    -0.77420
O81         O  0.23512162  0.11842386  0.03270188    -0.77570
C82         C  0.23108033  0.09492523  0.05526052     1.03010
Cr83       Cr  0.27302758  0.08605446  0.49796607     1.93740
Cr84       Cr  0.33775491  0.14966522  0.50107608     1.93210
Cr85       Cr  0.27359497  0.15098498  0.50004604     1.39100
O86         O  0.29460487  0.12882956  0.49969458    -1.22650
C87         C  0.37922572  0.29548384  0.17948299     0.03570
C88         C  0.36026225  0.30987679  0.18999187    -0.12580
C89         C  0.37542000  0.34086900  0.20798856     0.01070
C90         C  0.40957779  0.35886456  0.20542404    -0.11100
C91         C  0.42611489  0.34154700  0.21175506     0.03560
C92         C  0.41173369  0.31024705  0.19426680    -0.10520
H93         H  0.33400381  0.29654260  0.18656463     0.09160
H94         H  0.42138126  0.38375020  0.21617141     0.06690
H95         H  0.42471966  0.29682310  0.19450924     0.06540
C96         C  0.12644604  0.04369922  0.17752592     0.03570
C97         C  0.11088196  0.06154318  0.18842055    -0.12580
C98         C  0.07981802  0.04565468  0.20662115     0.01070
C99         C  0.06305485  0.01180147  0.20444481    -0.11100
C100        C  0.08196724  0.99705808  0.21154261     0.03560
C101        C  0.11317983  0.01190524  0.19332603    -0.10520
H102        H  0.12366113  0.08761179  0.18524549     0.09160
H103        H  0.03791026  0.99915172  0.21466957     0.06690
H104        H  0.12707767  0.99941547  0.19289469     0.06540
C105        C  0.04309706  0.37869397  0.32413246     0.03570
C106        C  0.01002385  0.36164832  0.31249585    -0.12580
C107        C  0.99608421  0.37827839  0.29338365     0.01070
C108        C  0.01341645  0.41213065  0.29672818    -0.11100
C109        C  0.04731034  0.42676977  0.29151050     0.03560
C110        C  0.06263981  0.41061655  0.30925088    -0.10520
H111        H  0.99627509  0.33554929  0.31512343     0.09160
H112        H  0.00151563  0.42518744  0.28584127     0.06690
H113        H  0.08896147  0.42192711  0.30970602     0.06540
C114        C  0.04714567  0.37957673  0.18322285     0.03570
C115        C  0.01493694  0.36120643  0.19937992    -0.12580
C116        C  0.99829840  0.37695622  0.21428293     0.01070
C117        C  0.01339918  0.41036075  0.20776501    -0.11100
C118        C  0.04739512  0.42723136  0.21178499     0.03560
C119        C  0.06414178  0.41302778  0.19313091    -0.10520
H120        H  0.00355779  0.33518010  0.20211445     0.09160
H121        H  0.00032361  0.42266592  0.21729230     0.06690
H122        H  0.08989579  0.42818022  0.18792469     0.06540
O123        O  0.16736973  0.28943042  0.05310385    -0.84910
O124        O  0.11240502  0.23250163  0.03069951    -0.81950
C125        C  0.09158828  0.23139250  0.05663937     0.98560
O126        O  0.08037171  0.25041858  0.05323515    -0.81990
O127        O  0.07760117  0.30488382  0.03153517    -0.84630
C128        C  0.09696440  0.32521234  0.05786040     1.03080
O129        O  0.12727402  0.33670921  0.05326811    -0.77390
O130        O  0.18466146  0.33875831  0.03149761    -0.77580
C131        C  0.18657180  0.31942366  0.05693888     1.03030
O132        O  0.18445902  0.30255222  0.46599187    -0.84900
O133        O  0.12638738  0.24916173  0.44370495    -0.81970
C134        C  0.09596802  0.23141054  0.43952916     0.98580
O135        O  0.07675112  0.23326704  0.46569940    -0.81990
O136        O  0.08010895  0.29054765  0.44442063    -0.84600
C137        C  0.09164517  0.32060949  0.44088331     1.03050
O138        O  0.11366771  0.34015873  0.46558942    -0.77420
O139        O  0.16853892  0.33611381  0.44446031    -0.77570
C140        C  0.18686857  0.32391279  0.44068841     1.03010
Cr141      Cr  0.14606452  0.27007164  0.49838909     1.93740
Cr142      Cr  0.08195256  0.27131647  0.49872685     1.93210
Cr143      Cr  0.14684592  0.33476964  0.49863583     1.39100
O144        O  0.12497714  0.29208108  0.49837882    -1.22650
C145        C  0.29578125  0.37822744  0.32341129     0.03570
C146        C  0.31167202  0.36094658  0.30978738    -0.12580
C147        C  0.34186638  0.37768028  0.28905272     0.01070
C148        C  0.35822448  0.41135238  0.29312815    -0.11100
C149        C  0.33860130  0.42553399  0.28844800     0.03560
C150        C  0.30731058  0.40919312  0.30580435    -0.10520
H151        H  0.30060485  0.33505443  0.31271713     0.09160
H152        H  0.38317954  0.42470662  0.28228939     0.06690
H153        H  0.29161476  0.41969462  0.30355598     0.06540
C154        C  0.29403878  0.37757598  0.17683160     0.03570
C155        C  0.30628156  0.40922805  0.19323374    -0.12580
C156        C  0.33799392  0.42584371  0.20975387     0.01070
C157        C  0.35729479  0.41128320  0.20430500    -0.11100
C158        C  0.34093005  0.37759284  0.20858552     0.03560
C159        C  0.31016580  0.36055384  0.18937293    -0.10520
H160        H  0.29091072  0.42014840  0.19479729     0.09160
H161        H  0.38248586  0.42468139  0.21430502     0.06690
H162        H  0.29874303  0.33456688  0.18636138     0.06540
C163        C  0.07573775  0.47865003  0.25193714     0.01010
C164        C  0.06055803  0.44605407  0.25192162     0.01010
C165        C  0.24750163  0.33040889  0.35664193    -0.11820
C166        C  0.26688516  0.36416825  0.35244379     0.05180
C167        C  0.25920068  0.38414639  0.37810805    -0.07110
C168        C  0.23155239  0.37007682  0.40388556    -0.07860
C169        C  0.21329034  0.33657851  0.40907776    -0.02410
C170        C  0.22217858  0.31652843  0.38616112     0.04410
N171        N  0.20650918  0.28223863  0.39271769     0.66920
H172        H  0.25240426  0.31425009  0.33808164     0.15810
H173        H  0.22591185  0.38564658  0.42290439     0.15530
N174        N  0.28051619  0.41845138  0.38162855     0.74620
O175        O  0.19841874  0.26355547  0.36125681    -0.38830
O176        O  0.20959722  0.27174235  0.42775691    -0.38770
O177        O  0.26882417  0.43723589  0.38189144    -0.39480
O178        O  0.30997187  0.42941824  0.39184591    -0.39540
C179        C  0.23339492  0.36667725  0.09062673    -0.11820
C180        C  0.21254461  0.33299786  0.08982591     0.05180
C181        C  0.21764622  0.31399998  0.11970399    -0.07110
C182        C  0.24295166  0.32912208  0.14937248    -0.07860
C183        C  0.26485679  0.36269357  0.14855223    -0.02410
C184        C  0.25977965  0.38150656  0.11828466     0.04410
N185        N  0.28228647  0.41535116  0.11287475     0.66920
H186        H  0.23036213  0.38184713  0.06791297     0.15810
H187        H  0.24591927  0.31413013  0.17235785     0.15530
N188        N  0.19853457  0.27940379  0.11951876     0.74620
O189        O  0.31179460  0.42478563  0.10459080    -0.38830
O190        O  0.27176835  0.43498055  0.10937349    -0.38770
O191        O  0.20048409  0.26364272  0.08865027    -0.39480
O192        O  0.18585391  0.26470215  0.15328481    -0.39540
C193        C  0.10594241  0.36193400  0.11894045    -0.11820
C194        C  0.08398511  0.33663435  0.09279132     0.05180
C195        C  0.05013125  0.32381389  0.09965576    -0.07110
C196        C  0.03951544  0.33801041  0.12986245    -0.07860
C197        C  0.06131584  0.36384311  0.15563192    -0.02410
C198        C  0.09524892  0.37527057  0.15053336     0.04410
N199        N  0.11944413  0.39987572  0.17703086     0.66920
H200        H  0.13191699  0.37152489  0.11500893     0.15810
H201        H  0.01352925  0.32875880  0.13248006     0.15530
N202        N  0.02590439  0.29631203  0.07674610     0.74620
O203        O  0.11771411  0.39657528  0.21641657    -0.38830
O204        O  0.14471354  0.42290161  0.16100915    -0.38770
O205        O  0.02557692  0.26968423  0.07887201    -0.39480
O206        O  0.00109585  0.29660784  0.06259012    -0.39540
C207        C  0.04505815  0.35806868  0.39371109    -0.11820
C208        C  0.05600643  0.36297289  0.35200099     0.05180
C209        C  0.07740874  0.35192167  0.33852132    -0.07110
C210        C  0.08868902  0.33784481  0.36821546    -0.07860
C211        C  0.07777550  0.33327467  0.40996942    -0.02410
C212        C  0.05513030  0.34277503  0.42258960     0.04410
N213        N  0.04130536  0.33602128  0.46405266     0.66920
H214        H  0.02783127  0.36560179  0.40359632     0.15810
H215        H  0.10566296  0.32990687  0.35871447     0.15530
N216        N  0.08673844  0.35347744  0.29512423     0.74620
O217        O  0.03437638  0.35554029  0.48210501    -0.38830
O218        O  0.03095916  0.30829346  0.47952035    -0.38770
O219        O  0.06740238  0.35115245  0.26623018    -0.39480
O220        O  0.11218080  0.35249922  0.28545485    -0.39540
C221        C  0.20803750  0.06815910  0.12409662    -0.11820
C222        C  0.20420987  0.08130875  0.08644505     0.05180
C223        C  0.17516631  0.08239878  0.07987106    -0.07110
C224        C  0.15133072  0.07122912  0.11122004    -0.07860
C225        C  0.15497583  0.05808593  0.14883339    -0.02410
C226        C  0.18394427  0.05682530  0.15568429     0.04410
N227        N  0.18997895  0.04561003  0.19476968     0.66920
H228        H  0.23048714  0.06778477  0.12956633     0.15810
H229        H  0.12880590  0.07135992  0.10520469     0.15530
N230        N  0.16850437  0.09295409  0.04074393     0.74620
O231        O  0.20785567  0.03281821  0.19555652    -0.38830
O232        O  0.18052860  0.05160400  0.22912593    -0.38770
O233        O  0.17182174  0.08140633  0.00644048    -0.39480
O234        O  0.15422895  0.10943171  0.04069533    -0.39540
C235        C  0.32171017  0.21444204  0.12755807    -0.11820
C236        C  0.33777340  0.21795075  0.08905794     0.05180
C237        C  0.36816114  0.24624630  0.08213054    -0.07110
C238        C  0.38194261  0.26959295  0.11392876    -0.07860
C239        C  0.36574765  0.26646278  0.15199569    -0.02410
C240        C  0.33534709  0.23830787  0.15931081     0.04410
N241        N  0.31858478  0.23315444  0.19883615     0.66920
H242        H  0.29880452  0.19256893  0.13334190     0.15810
H243        H  0.40464803  0.29161562  0.10769314     0.15530
N244        N  0.38439235  0.25283627  0.04214467     0.74620
O245        O  0.28805083  0.21511248  0.20065993    -0.38830
O246        O  0.33441912  0.24394725  0.23262842    -0.38770
O247        O  0.36899998  0.25118730  0.00896079    -0.39480
O248        O  0.41502680  0.26564056  0.04064217    -0.39540
C249        C  0.38023973  0.24793490  0.35477885    -0.11820
C250        C  0.36312155  0.26479996  0.34729533     0.05180
C251        C  0.33362704  0.25470645  0.36996455    -0.07110
C252        C  0.32266677  0.22913656  0.39842677    -0.07860
C253        C  0.34110609  0.21426254  0.40800553    -0.02410
C254        C  0.37054354  0.22413917  0.38601014     0.04410
N255        N  0.39227919  0.21241077  0.39705819     0.66920
H256        H  0.40234595  0.25399029  0.33800516     0.15810
H257        H  0.30005815  0.22205349  0.41497378     0.15530
N258        N  0.31534789  0.27129534  0.36733433     0.74620
O259        O  0.40616683  0.20512666  0.36851668    -0.38830
O260        O  0.40270163  0.21576382  0.43432791    -0.38770
O261        O  0.28536291  0.25564147  0.35848412    -0.39480
O262        O  0.32734282  0.29972244  0.38164760    -0.39540
C263        C  0.17689570  0.05053873  0.35162022    -0.11820
C264        C  0.15533956  0.06289158  0.34940587     0.05180
C265        C  0.16190302  0.09006111  0.37515216    -0.07110
C266        C  0.18945562  0.10394385  0.40130544    -0.07860
C267        C  0.20958068  0.09026381  0.40500303    -0.02410
C268        C  0.20328419  0.06333542  0.37963664     0.04410
N269        N  0.22377453  0.04903974  0.38124796     0.66920
H270        H  0.17366918  0.03088266  0.33131773     0.15810
H271        H  0.19363399  0.12404667  0.42155492     0.15530
N272        N  0.13975388  0.10244354  0.37797786     0.74620
O273        O  0.21128785  0.01866383  0.38055833    -0.38830
O274        O  0.25415659  0.06653154  0.37675345    -0.38770
O275        O  0.11041786  0.08390440  0.38814224    -0.39480
O276        O  0.15058606  0.13258345  0.37733702    -0.39540
C277        C  0.06039045  0.18467583  0.15905722    -0.11820
C278        C  0.05349253  0.15379065  0.14556960     0.05180
C279        C  0.05892366  0.14869413  0.10321033    -0.07110
C280        C  0.07194598  0.17484509  0.07560223    -0.07860
C281        C  0.07896176  0.20579856  0.08873406    -0.02410
C282        C  0.07352664  0.21105576  0.13117097     0.04410
N283        N  0.08256659  0.24286219  0.14688610     0.66920
H284        H  0.05645479  0.18835631  0.19171811     0.15810
H285        H  0.07564479  0.17075586  0.04298462     0.15530
N286        N  0.05053147  0.11706726  0.08736652     0.74620
O287        O  0.06779760  0.24611954  0.17803157    -0.38830
O288        O  0.10781497  0.26739511  0.13339987    -0.38770
O289        O  0.02470855  0.09236753  0.09917008    -0.39480
O290        O  0.06671457  0.11420199  0.05765737    -0.39540
C291        C  0.08235555  0.18352510  0.33751037    -0.11820
C292        C  0.05483318  0.15421060  0.34851660     0.05180
C293        C  0.04030322  0.15114330  0.38832311    -0.07110
C294        C  0.05402715  0.17719466  0.41641627    -0.07860
C295        C  0.08206109  0.20635921  0.40617272    -0.02410
C296        C  0.09580263  0.21013479  0.36543989     0.04410
N297        N  0.12179358  0.24078948  0.35098341     0.66920
H298        H  0.09268589  0.18588625  0.30642438     0.15810
H299        H  0.04334108  0.17409223  0.44742108     0.15530
N300        N  0.01248660  0.12139084  0.40154914     0.74620
O301        O  0.13893644  0.24175208  0.31991635    -0.38830
O302        O  0.12397294  0.26691488  0.36393599    -0.38770
O303        O  0.01166999  0.09473659  0.39577933    -0.39480
O304        O  0.99057990  0.12205220  0.42363830    -0.39540
C305        C  0.36020541  0.10698200  0.12273382    -0.11820
C306        C  0.33510855  0.08619217  0.09535518     0.05180
C307        C  0.32114432  0.05239316  0.10064983    -0.07110
C308        C  0.33462280  0.04050011  0.12966291    -0.07860
C309        C  0.36064550  0.06110727  0.15599445    -0.02410
C310        C  0.37259423  0.09498369  0.15372522     0.04410
N311        N  0.39650282  0.11752619  0.18272743     0.66920
H312        H  0.37024062  0.13288175  0.12016922     0.15810
H313        H  0.32477509  0.01456868  0.13083401     0.15530
N314        N  0.29322428  0.02957430  0.07704499     0.74620
O315        O  0.41706559  0.14563020  0.17080585    -0.38830
O316        O  0.39505372  0.11072838  0.22123970    -0.38770
O317        O  0.29355558  0.00619155  0.05856706    -0.39480
O318        O  0.26652726  0.02936085  0.08110624    -0.39540
C319        C  0.36299876  0.04998335  0.39373469    -0.11820
C320        C  0.36237110  0.05687881  0.35112548     0.05180
C321        C  0.34874166  0.07609117  0.33865364    -0.07110
C322        C  0.33693681  0.08873881  0.36985422    -0.07860
C323        C  0.33816472  0.08224021  0.41258809    -0.02410
C324        C  0.35118927  0.06245177  0.42472998     0.04410
N325        N  0.35161158  0.05375092  0.46786905     0.66920
H326        H  0.37318041  0.03492957  0.40300593     0.15810
H327        H  0.32629940  0.10342632  0.36083227     0.15530
N328        N  0.34585141  0.08222442  0.29504628     0.74620
O329        O  0.34546706  0.02546035  0.47670408    -0.38830
O330        O  0.36290752  0.07519041  0.49623390    -0.38770
O331        O  0.34121238  0.06132197  0.26725121    -0.39480
O332        O  0.34422932  0.10695326  0.28468524    -0.39540
C333        C  0.36118635  0.34584302  0.74748021     0.01010
C334        C  0.34717682  0.36454444  0.74834526     0.01010
C335        C  0.47782707  0.36479935  0.75316939     0.01010
C336        C  0.44496545  0.34855792  0.75215266     0.01010
C337        C  0.47505064  0.07503872  0.74750258     0.01010
C338        C  0.44234952  0.05773577  0.74734121     0.01010
C339        C  0.37621269  0.04302286  0.82156292     0.03570
C340        C  0.40819939  0.06146258  0.80573053    -0.12580
C341        C  0.42322566  0.04522803  0.78722703     0.01070
C342        C  0.40783063  0.01169208  0.79299150    -0.11100
C343        C  0.37372474  0.99536550  0.79059939     0.03560
C344        C  0.35794031  0.01015261  0.81030425    -0.10520
H345        H  0.42040262  0.08763201  0.80615495     0.09160
H346        H  0.42025635  0.99915971  0.78173965     0.06690
H347        H  0.33169478  0.99714315  0.81402397     0.06540
C348        C  0.37613366  0.04597183  0.68129632     0.03570
C349        C  0.35694294  0.01440892  0.69779571    -0.12580
C350        C  0.37199163  0.99703819  0.71166219     0.01070
C351        C  0.40546230  0.01071318  0.70402012    -0.11100
C352        C  0.42368116  0.04446581  0.70714547     0.03560
C353        C  0.41013010  0.06161583  0.68847374    -0.10520
H354        H  0.33087699  0.00414497  0.70164295     0.09160
H355        H  0.41716068  0.99708049  0.71329311     0.06690
H356        H  0.42593240  0.08692160  0.68186361     0.06540
C357        C  0.34375339  0.44470161  0.74955344     0.01010
C358        C  0.35958584  0.47718327  0.75058856     0.01010
C359        C  0.04144911  0.12659532  0.81892502     0.03570
C360        C  0.06080384  0.11374743  0.80375476    -0.12580
C361        C  0.04530571  0.08280270  0.78537412     0.01070
C362        C  0.01146697  0.06418535  0.79079654    -0.11100
C363        C  0.99430444  0.08107799  0.78713575     0.03560
C364        C  0.00861637  0.11186580  0.80578228    -0.10740
H365        H  0.08715482  0.12781263  0.80494565     0.09160
H366        H  0.99950869  0.03925068  0.78029332     0.06690
H367        H  0.99512046  0.12472608  0.80829144     0.06540
C368        C  0.04078968  0.12668453  0.67536520     0.03570
C369        C  0.06000802  0.11295961  0.68758329    -0.12580
C370        C  0.04471778  0.08212544  0.70585193     0.01070
C371        C  0.01070387  0.06409051  0.70202151    -0.11100
C372        C  0.99421033  0.08154522  0.70773102     0.03560
C373        C  0.00850716  0.11254243  0.69012125    -0.10520
H374        H  0.08630022  0.12664538  0.68483022     0.09160
H375        H  0.99865143  0.03915758  0.71214642     0.06690
H376        H  0.99531093  0.12575228  0.68925808     0.06540
C377        C  0.05852019  0.07686013  0.74550923     0.01010
C378        C  0.07426274  0.05981738  0.74574073     0.01010
C379        C  0.12565806  0.04648509  0.82192733     0.03570
C380        C  0.11260919  0.06429098  0.80264725    -0.12580
C381        C  0.08105167  0.04792934  0.78575259     0.01070
C382        C  0.06262956  0.01460650  0.79312091    -0.11100
C383        C  0.08005345  0.99789417  0.79151833     0.03560
C384        C  0.11053879  0.01298315  0.81166073    -0.10520
H385        H  0.12732450  0.09022256  0.79889448     0.09160
H386        H  0.03753820  0.00203207  0.78260537     0.06690
H387        H  0.12250613  0.99898349  0.81684659     0.06540
C388        C  0.37787155  0.29449113  0.81980966     0.03570
C389        C  0.35863245  0.30627488  0.80093449    -0.12580
C390        C  0.37347343  0.33834436  0.78663281     0.01070
C391        C  0.40682689  0.35798426  0.79463745    -0.11100
C392        C  0.42523915  0.34239135  0.79163305     0.03560
C393        C  0.41172000  0.31175243  0.81013057    -0.10520
H394        H  0.33295452  0.29035067  0.79497010     0.09160
H395        H  0.41828610  0.38304781  0.78510191     0.06690
H396        H  0.42732279  0.30141456  0.81388649     0.06540
O397        O  0.23628076  0.08176779  0.96232082    -0.84910
O398        O  0.29461772  0.08508113  0.94510073    -0.81950
C399        C  0.32477635  0.09540324  0.94371150     0.98560
O400        O  0.34365290  0.11642336  0.96969316    -0.81990
O401        O  0.34021193  0.17044022  0.94621988    -0.84630
C402        C  0.32900130  0.18944180  0.94174346     1.03080
O403        O  0.30748550  0.18810798  0.96684622    -0.77390
O404        O  0.25177280  0.13201834  0.94564338    -0.77580
C405        C  0.23429328  0.10206342  0.93888255     1.03030
O406        O  0.24929507  0.08275711  0.55083356    -0.84900
O407        O  0.30525031  0.08112642  0.53301488    -0.81970
C408        C  0.32514912  0.09995604  0.56026859     0.98580
O409        O  0.33771766  0.13018808  0.55613570    -0.81990
O410        O  0.34295680  0.18820223  0.53264698    -0.84600
C411        C  0.32385938  0.19134445  0.55750296     1.03050
O412        O  0.29352627  0.17246107  0.55460615    -0.77420
O413        O  0.23512163  0.11842387  0.53270189    -0.77570
C414        C  0.23108034  0.09492524  0.55526053     1.03010
Cr415      Cr  0.27302757  0.08605445  0.99796607     1.93740
Cr416      Cr  0.33775490  0.14966520  0.00107609     1.93210
Cr417      Cr  0.27359496  0.15098497  0.00004604     1.39100
O418        O  0.29460486  0.12882955  0.99969458    -1.22650
C419        C  0.37922575  0.29548385  0.67948301     0.03570
C420        C  0.36026229  0.30987680  0.68999189    -0.12580
C421        C  0.37542004  0.34086901  0.70798858     0.01070
C422        C  0.40957783  0.35886456  0.70542406    -0.11100
C423        C  0.42611492  0.34154700  0.71175508     0.03560
C424        C  0.41173373  0.31024706  0.69426682    -0.10520
H425        H  0.33400384  0.29654262  0.68656465     0.09160
H426        H  0.42138131  0.38375021  0.71617143     0.06690
H427        H  0.42471968  0.29682310  0.69450925     0.06540
C428        C  0.12644605  0.04369922  0.67752592     0.03570
C429        C  0.11088195  0.06154317  0.68842055    -0.12580
C430        C  0.07981802  0.04565466  0.70662114     0.01070
C431        C  0.06305485  0.01180145  0.70444480    -0.11100
C432        C  0.08196725  0.99705807  0.71154261     0.03560
C433        C  0.11317984  0.01190524  0.69332603    -0.10520
H434        H  0.12366113  0.08761178  0.68524548     0.09160
H435        H  0.03791026  0.99915171  0.71466956     0.06690
H436        H  0.12707767  0.99941547  0.69289470     0.06540
C437        C  0.04309704  0.37869397  0.82413244     0.03570
C438        C  0.01002383  0.36164832  0.81249582    -0.12580
C439        C  0.99608418  0.37827838  0.79338364     0.01070
C440        C  0.01341642  0.41213064  0.79672817    -0.11100
C441        C  0.04731031  0.42676977  0.79151048     0.03560
C442        C  0.06263978  0.41061655  0.80925086    -0.10520
H443        H  0.99627507  0.33554928  0.81512341     0.09160
H444        H  0.00151560  0.42518743  0.78584126     0.06690
H445        H  0.08896144  0.42192711  0.80970599     0.06540
C446        C  0.04714565  0.37957674  0.68322285     0.03570
C447        C  0.01493692  0.36120643  0.69937992    -0.12580
C448        C  0.99829838  0.37695622  0.71428291     0.01070
C449        C  0.01339915  0.41036075  0.70776500    -0.11100
C450        C  0.04739509  0.42723136  0.71178498     0.03560
C451        C  0.06414176  0.41302779  0.69313090    -0.10520
H452        H  0.00355778  0.33518010  0.70211446     0.09160
H453        H  0.00032358  0.42266592  0.71729229     0.06690
H454        H  0.08989576  0.42818023  0.68792467     0.06540
O455        O  0.16736976  0.28943043  0.55310387    -0.84910
O456        O  0.11240504  0.23250164  0.53069954    -0.81950
C457        C  0.09158830  0.23139250  0.55663940     0.98560
O458        O  0.08037172  0.25041858  0.55323519    -0.81990
O459        O  0.07760118  0.30488382  0.53153521    -0.84630
C460        C  0.09696442  0.32521234  0.55786044     1.03080
O461        O  0.12727403  0.33670921  0.55326816    -0.77390
O462        O  0.18466148  0.33875831  0.53149764    -0.77580
C463        C  0.18657183  0.31942367  0.55693890     1.03030
O464        O  0.18445901  0.30255221  0.96599185    -0.84900
O465        O  0.12638737  0.24916172  0.94370492    -0.81970
C466        C  0.09596801  0.23141053  0.93952913     0.98580
O467        O  0.07675111  0.23326703  0.96569936    -0.81990
O468        O  0.08010893  0.29054764  0.94442059    -0.84600
C469        C  0.09164515  0.32060948  0.94088326     1.03050
O470        O  0.11366770  0.34015873  0.96558937    -0.77420
O471        O  0.16853891  0.33611380  0.94446027    -0.77570
C472        C  0.18686857  0.32391278  0.94068838     1.03010
Cr473      Cr  0.14606450  0.27007164  0.99838907     1.93740
Cr474      Cr  0.08195254  0.27131646  0.99872681     1.93210
Cr475      Cr  0.14684590  0.33476964  0.99863578     1.39100
O476        O  0.12497713  0.29208107  0.99837878    -1.22650
C477        C  0.29578127  0.37822744  0.82341130     0.03570
C478        C  0.31167205  0.36094658  0.80978740    -0.12580
C479        C  0.34186641  0.37768029  0.78905274     0.01070
C480        C  0.35822450  0.41135238  0.79312818    -0.11100
C481        C  0.33860132  0.42553399  0.78844801     0.03560
C482        C  0.30731060  0.40919312  0.80580437    -0.10520
H483        H  0.30060487  0.33505443  0.81271715     0.09160
H484        H  0.38317957  0.42470662  0.78228943     0.06690
H485        H  0.29161478  0.41969462  0.80355600     0.06540
C486        C  0.29403883  0.37757598  0.67683159     0.03570
C487        C  0.30628160  0.40922805  0.69323375    -0.12580
C488        C  0.33799395  0.42584371  0.70975388     0.01070
C489        C  0.35729483  0.41128321  0.70430503    -0.11100
C490        C  0.34093010  0.37759285  0.70858553     0.03560
C491        C  0.31016586  0.36055385  0.68937294    -0.10520
H492        H  0.29091075  0.42014840  0.69479729     0.09160
H493        H  0.38248590  0.42468140  0.71430505     0.06690
H494        H  0.29874309  0.33456689  0.68636138     0.06540
C495        C  0.07573773  0.47865003  0.75193713     0.01010
C496        C  0.06055800  0.44605407  0.75192161     0.01010
C497        C  0.24750163  0.33040889  0.85664192    -0.11820
C498        C  0.26688518  0.36416824  0.85244379     0.05180
C499        C  0.25920070  0.38414638  0.87810806    -0.07110
C500        C  0.23155240  0.37007681  0.90388556    -0.07860
C501        C  0.21329034  0.33657850  0.90907773    -0.02410
C502        C  0.22217858  0.31652843  0.88616109     0.04410
N503        N  0.20650916  0.28223862  0.89271764     0.66920
H504        H  0.25240427  0.31425009  0.83808162     0.15810
H505        H  0.22591186  0.38564657  0.92290439     0.15530
N506        N  0.28051621  0.41845137  0.88162857     0.74620
O507        O  0.19841875  0.26355547  0.86125674    -0.38830
O508        O  0.20959718  0.27174232  0.92775687    -0.38770
O509        O  0.26882420  0.43723588  0.88189147    -0.39480
O510        O  0.30997189  0.42941822  0.89184593    -0.39540
C511        C  0.23339496  0.36667726  0.59062674    -0.11820
C512        C  0.21254466  0.33299786  0.58982591     0.05180
C513        C  0.21764629  0.31399998  0.61970397    -0.07110
C514        C  0.24295173  0.32912207  0.64937246    -0.07860
C515        C  0.26485684  0.36269357  0.64855222    -0.02410
C516        C  0.25977969  0.38150656  0.61828467     0.04410
N517        N  0.28228651  0.41535116  0.61287475     0.66920
H518        H  0.23036216  0.38184714  0.56791300     0.15810
H519        H  0.24591934  0.31413013  0.67235781     0.15530
N520        N  0.19853466  0.27940379  0.61951870     0.74620
O521        O  0.31179465  0.42478563  0.60459081    -0.38830
O522        O  0.27176840  0.43498055  0.60937348    -0.38770
O523        O  0.20048418  0.26364275  0.58865016    -0.39480
O524        O  0.18585404  0.26470211  0.65328475    -0.39540
C525        C  0.10594242  0.36193401  0.61894048    -0.11820
C526        C  0.08398512  0.33663435  0.59279136     0.05180
C527        C  0.05013126  0.32381388  0.59965580    -0.07110
C528        C  0.03951544  0.33801041  0.62986247    -0.07860
C529        C  0.06131583  0.36384312  0.65563194    -0.02410
C530        C  0.09524892  0.37527059  0.65053338     0.04410
N531        N  0.11944412  0.39987574  0.67703089     0.66920
H532        H  0.13191699  0.37152491  0.61500897     0.15810
H533        H  0.01352925  0.32875879  0.63248007     0.15530
N534        N  0.02590440  0.29631201  0.57674615     0.74620
O535        O  0.11771407  0.39657532  0.71641660    -0.38830
O536        O  0.14471354  0.42290162  0.66100918    -0.38770
O537        O  0.02557695  0.26968422  0.57887207    -0.39480
O538        O  0.00109586  0.29660780  0.56259016    -0.39540
C539        C  0.04505815  0.35806869  0.89371107    -0.11820
C540        C  0.05600641  0.36297289  0.85200096     0.05180
C541        C  0.07740870  0.35192164  0.83852127    -0.07110
C542        C  0.08868898  0.33784478  0.86821540    -0.07860
C543        C  0.07777548  0.33327466  0.90996938    -0.02410
C544        C  0.05513030  0.34277504  0.92258956     0.04410
N545        N  0.04130537  0.33602130  0.96405264     0.66920
H546        H  0.02783128  0.36560182  0.90359631     0.15810
H547        H  0.10566291  0.32990683  0.85871441     0.15530
N548        N  0.08673838  0.35347739  0.79512418     0.74620
O549        O  0.03437641  0.35554033  0.98210499    -0.38830
O550        O  0.03095915  0.30829348  0.97952032    -0.38770
O551        O  0.06740231  0.35115242  0.76623014    -0.39480
O552        O  0.11218072  0.35249915  0.78545478    -0.39540
C553        C  0.20803751  0.06815911  0.62409663    -0.11820
C554        C  0.20420989  0.08130876  0.58644506     0.05180
C555        C  0.17516632  0.08239878  0.57987106    -0.07110
C556        C  0.15133073  0.07122912  0.61122004    -0.07860
C557        C  0.15497584  0.05808593  0.64883339    -0.02410
C558        C  0.18394428  0.05682530  0.65568430     0.04410
N559        N  0.18997896  0.04561004  0.69476969     0.66920
H560        H  0.23048716  0.06778478  0.62956634     0.15810
H561        H  0.12880591  0.07135991  0.60520468     0.15530
N562        N  0.16850438  0.09295409  0.54074393     0.74620
O563        O  0.20785569  0.03281823  0.69555654    -0.38830
O564        O  0.18052860  0.05160401  0.72912594    -0.38770
O565        O  0.17182175  0.08140633  0.50644049    -0.39480
O566        O  0.15422896  0.10943170  0.54069533    -0.39540
C567        C  0.32171019  0.21444205  0.62755807    -0.11820
C568        C  0.33777343  0.21795076  0.58905795     0.05180
C569        C  0.36816117  0.24624630  0.58213056    -0.07110
C570        C  0.38194264  0.26959296  0.61392878    -0.07860
C571        C  0.36574768  0.26646279  0.65199570    -0.02410
C572        C  0.33534711  0.23830788  0.65931082     0.04410
N573        N  0.31858479  0.23315445  0.69883615     0.66920
H574        H  0.29880453  0.19256895  0.63334190     0.15810
H575        H  0.40464806  0.29161562  0.60769316     0.15530
N576        N  0.38439239  0.25283628  0.54214469     0.74620
O577        O  0.28805084  0.21511250  0.70065992    -0.38830
O578        O  0.33441913  0.24394725  0.73262842    -0.38770
O579        O  0.36900003  0.25118732  0.50896080    -0.39480
O580        O  0.41502683  0.26564055  0.54064220    -0.39540
C581        C  0.38023978  0.24793492  0.85477891    -0.11820
C582        C  0.36312158  0.26479996  0.84729535     0.05180
C583        C  0.33362705  0.25470643  0.86996453    -0.07110
C584        C  0.32266677  0.22913653  0.89842675    -0.07860
C585        C  0.34110610  0.21426253  0.90800554    -0.02410
C586        C  0.37054358  0.22413919  0.88601020     0.04410
N587        N  0.39227924  0.21241082  0.89705830     0.66920
H588        H  0.40234601  0.25399033  0.83800527     0.15810
H589        H  0.30005814  0.22205345  0.91497372     0.15530
N590        N  0.31534788  0.27129530  0.86733427     0.74620
O591        O  0.40616694  0.20512674  0.86851683    -0.38830
O592        O  0.40270163  0.21576386  0.93432805    -0.38770
O593        O  0.28536291  0.25564141  0.85848401    -0.39480
O594        O  0.32734278  0.29972239  0.88164757    -0.39540
C595        C  0.17689571  0.05053873  0.85162020    -0.11820
C596        C  0.15533956  0.06289157  0.84940585     0.05180
C597        C  0.16190302  0.09006110  0.87515215    -0.07110
C598        C  0.18945562  0.10394384  0.90130542    -0.07860
C599        C  0.20958068  0.09026381  0.90500302    -0.02410
C600        C  0.20328419  0.06333542  0.87963662     0.04410
N601        N  0.22377453  0.04903974  0.88124793     0.66920
H602        H  0.17366918  0.03088266  0.83131771     0.15810
H603        H  0.19363398  0.12404666  0.92155491     0.15530
N604        N  0.13975388  0.10244353  0.87797785     0.74620
O605        O  0.21128786  0.01866383  0.88055829    -0.38830
O606        O  0.25415659  0.06653154  0.87675344    -0.38770
O607        O  0.11041786  0.08390439  0.88814223    -0.39480
O608        O  0.15058606  0.13258344  0.87733701    -0.39540
C609        C  0.06039046  0.18467582  0.65905723    -0.11820
C610        C  0.05349252  0.15379063  0.64556960     0.05180
C611        C  0.05892365  0.14869411  0.60321032    -0.07110
C612        C  0.07194598  0.17484508  0.57560224    -0.07860
C613        C  0.07896177  0.20579856  0.58873408    -0.02410
C614        C  0.07352666  0.21105575  0.63117100     0.04410
N615        N  0.08256662  0.24286218  0.64688615     0.66920
H616        H  0.05645481  0.18835628  0.69171813     0.15810
H617        H  0.07564479  0.17075586  0.54298462     0.15530
N618        N  0.05053144  0.11706725  0.58736650     0.74620
O619        O  0.06779764  0.24611953  0.67803163    -0.38830
O620        O  0.10781500  0.26739509  0.63339991    -0.38770
O621        O  0.02470852  0.09236752  0.59917006    -0.39480
O622        O  0.06671453  0.11420198  0.55765734    -0.39540
C623        C  0.08235554  0.18352508  0.83751035    -0.11820
C624        C  0.05483317  0.15421058  0.84851658     0.05180
C625        C  0.04030321  0.15114329  0.88832309    -0.07110
C626        C  0.05402714  0.17719464  0.91641625    -0.07860
C627        C  0.08206108  0.20635919  0.90617270    -0.02410
C628        C  0.09580262  0.21013478  0.86543986     0.04410
N629        N  0.12179357  0.24078946  0.85098338     0.66920
H630        H  0.09268587  0.18588623  0.80642435     0.15810
H631        H  0.04334107  0.17409222  0.94742106     0.15530
N632        N  0.01248659  0.12139082  0.90154913     0.74620
O633        O  0.13893643  0.24175207  0.81991632    -0.38830
O634        O  0.12397292  0.26691487  0.86393596    -0.38770
O635        O  0.01166999  0.09473657  0.89577932    -0.39480
O636        O  0.99057990  0.12205218  0.92363829    -0.39540
C637        C  0.36020544  0.10698202  0.62273380    -0.11820
C638        C  0.33510858  0.08619219  0.59535517     0.05180
C639        C  0.32114435  0.05239318  0.60064982    -0.07110
C640        C  0.33462283  0.04050013  0.62966290    -0.07860
C641        C  0.36064553  0.06110730  0.65599444    -0.02410
C642        C  0.37259427  0.09498371  0.65372520     0.04410
N643        N  0.39650286  0.11752621  0.68272741     0.66920
H644        H  0.37024066  0.13288178  0.62016920     0.15810
H645        H  0.32477512  0.01456870  0.63083400     0.15530
N646        N  0.29322431  0.02957432  0.57704499     0.74620
O647        O  0.41706563  0.14563022  0.67080583    -0.38830
O648        O  0.39505375  0.11072841  0.72123969    -0.38770
O649        O  0.29355561  0.00619158  0.55856704    -0.39480
O650        O  0.26652728  0.02936086  0.58110625    -0.39540
C651        C  0.36299877  0.04998335  0.89373470    -0.11820
C652        C  0.36237112  0.05687882  0.85112549     0.05180
C653        C  0.34874168  0.07609119  0.83865365    -0.07110
C654        C  0.33693682  0.08873882  0.86985423    -0.07860
C655        C  0.33816473  0.08224021  0.91258809    -0.02410
C656        C  0.35118927  0.06245176  0.92472999     0.04410
N657        N  0.35161156  0.05375090  0.96786905     0.66920
H658        H  0.37318041  0.03492956  0.90300594     0.15810
H659        H  0.32629942  0.10342633  0.86083228     0.15530
N660        N  0.34585144  0.08222444  0.79504629     0.74620
O661        O  0.34546705  0.02546033  0.97670408    -0.38830
O662        O  0.36290749  0.07519038  0.99623391    -0.38770
O663        O  0.34121242  0.06132200  0.76725121    -0.39480
O664        O  0.34422936  0.10695329  0.78468526    -0.39540
C665        C  0.36120313  0.84584655  0.24747708     0.01010
C666        C  0.34718989  0.86454445  0.24834276     0.01010
C667        C  0.47783453  0.86479804  0.25316533     0.01010
C668        C  0.44497254  0.84854113  0.25214816     0.01010
C669        C  0.47501574  0.57506124  0.24750349     0.01010
C670        C  0.44231480  0.55774963  0.24734065     0.01010
C671        C  0.37616950  0.54301664  0.32156065     0.03570
C672        C  0.40815536  0.56146434  0.30572806    -0.12580
C673        C  0.42319037  0.54523769  0.28722561     0.01070
C674        C  0.40780420  0.51170223  0.29299040    -0.11100
C675        C  0.37369820  0.49536684  0.29059721     0.03560
C676        C  0.35790567  0.51014582  0.31030169    -0.10520
H677        H  0.42035156  0.58763346  0.30615250     0.09160
H678        H  0.42023657  0.49917613  0.28173973     0.06690
H679        H  0.33166016  0.49712941  0.31402114     0.06540
C680        C  0.37609510  0.54596699  0.18129245     0.03570
C681        C  0.35691027  0.51440288  0.19779149    -0.12580
C682        C  0.37196590  0.49703881  0.21165963     0.01070
C683        C  0.40543766  0.51072169  0.20401928    -0.11100
C684        C  0.42364914  0.54447478  0.20714401     0.03560
C685        C  0.41009182  0.56161790  0.18846971    -0.10520
H686        H  0.33084354  0.50413315  0.20163778     0.09160
H687        H  0.41714166  0.49709456  0.21329358     0.06690
H688        H  0.42588981  0.58692413  0.18185806     0.06540
C689        C  0.34376801  0.94470179  0.24955508     0.01010
C690        C  0.35960804  0.97718348  0.25059094     0.01010
C691        C  0.04142301  0.62660503  0.31892434     0.03570
C692        C  0.06076814  0.61374538  0.30375768    -0.12580
C693        C  0.04526038  0.58280049  0.28537809     0.01070
C694        C  0.01142062  0.56419361  0.29079940    -0.11100
C695        C  0.99426883  0.58109694  0.28713663     0.03560
C696        C  0.00859113  0.61188621  0.30578046    -0.10740
H697        H  0.08711957  0.62780215  0.30495013     0.09160
H698        H  0.99945456  0.53925867  0.28029640     0.06690
H699        H  0.99510356  0.62475498  0.30828805     0.06540
C700        C  0.04076624  0.62669489  0.17536972     0.03570
C701        C  0.05997447  0.61295872  0.18758785    -0.12580
C702        C  0.04467413  0.58212418  0.20585558     0.01070
C703        C  0.01065979  0.56409964  0.20202375    -0.11100
C704        C  0.99417669  0.58156458  0.20773336     0.03560
C705        C  0.00848427  0.61256313  0.19012572    -0.10520
H706        H  0.08626704  0.62663638  0.18483548     0.09160
H707        H  0.99859930  0.53916640  0.21214818     0.06690
H708        H  0.99529622  0.62578107  0.18926288     0.06540
C709        C  0.05847065  0.57685210  0.24551371     0.01010
C710        C  0.07420898  0.55980535  0.24574602     0.01010
C711        C  0.12560762  0.54648064  0.32193500     0.03570
C712        C  0.11255374  0.56428343  0.30265839    -0.12580
C713        C  0.08099788  0.54791754  0.28575846     0.01070
C714        C  0.06258118  0.51459374  0.29312245    -0.11100
C715        C  0.08001105  0.49788746  0.29151909     0.03560
C716        C  0.11049477  0.51297989  0.31166499    -0.10520
H717        H  0.12726444  0.59021608  0.29891213     0.09160
H718        H  0.03749017  0.50201557  0.28260598     0.06690
H719        H  0.12246667  0.49898439  0.31685037     0.06540
C720        C  0.37786896  0.79448145  0.31980502     0.03570
C721        C  0.35863727  0.80627404  0.30093086    -0.12580
C722        C  0.37348644  0.83834383  0.28662968     0.01070
C723        C  0.40684089  0.85797594  0.29463430    -0.11100
C724        C  0.42524496  0.84237454  0.29162749     0.03560
C725        C  0.41171737  0.81173335  0.31012145    -0.10520
H726        H  0.33295888  0.79035560  0.29496335     0.09160
H727        H  0.41830620  0.88304004  0.28509957     0.06690
H728        H  0.42731263  0.80138775  0.31387009     0.06540
O729        O  0.23623096  0.58176403  0.46231981    -0.84910
O730        O  0.29456196  0.58506322  0.44510378    -0.81950
C731        C  0.32471985  0.59538133  0.44371411     0.98560
O732        O  0.34359836  0.61640063  0.46969493    -0.81990
O733        O  0.34016756  0.67042154  0.44621573    -0.84630
C734        C  0.32896405  0.68942890  0.44173863     1.03080
O735        O  0.30744953  0.68810041  0.46683974    -0.77390
O736        O  0.25172755  0.63201637  0.44564466    -0.77580
C737        C  0.23424532  0.60206180  0.43888364     1.03030
O738        O  0.24924244  0.58275296  0.05083343    -0.84900
O739        O  0.30519169  0.58111079  0.03302115    -0.81970
C740        C  0.32509567  0.59994087  0.06027045     0.98580
O741        O  0.33766782  0.63017295  0.05613442    -0.81990
O742        O  0.34291901  0.68819063  0.03263976    -0.84600
C743        C  0.32382604  0.69133822  0.05749766     1.03050
O744        O  0.29349186  0.67245954  0.05460319    -0.77420
O745        O  0.23507982  0.61842829  0.03270435    -0.77570
C746        C  0.23103322  0.59492716  0.05526164     1.03010
Cr747      Cr  0.27297393  0.58604433  0.49796780     1.93740
Cr748      Cr  0.33770775  0.64964845  0.50107344     1.93210
Cr749      Cr  0.27355522  0.65098267  0.50004471     1.39100
O750        O  0.29455773  0.62881966  0.49969349    -1.22650
C751        C  0.37922419  0.79547608  0.17947911     0.03570
C752        C  0.36026872  0.80987779  0.18998697    -0.12580
C753        C  0.37543381  0.84086963  0.20798462     0.01070
C754        C  0.40959199  0.85885743  0.20542017    -0.11100
C755        C  0.42612140  0.84153224  0.21175094     0.03560
C756        C  0.41173176  0.81023114  0.19426385    -0.10520
H757        H  0.33401016  0.79654998  0.18655922     0.09160
H758        H  0.42140116  0.88374316  0.21616804     0.06690
H759        H  0.42471112  0.79680076  0.19450680     0.06540
C760        C  0.12639722  0.54369755  0.17752426     0.03570
C761        C  0.11082981  0.56153760  0.18842343    -0.12580
C762        C  0.07976654  0.54564487  0.20662583     0.01070
C763        C  0.06300742  0.51179177  0.20444802    -0.11100
C764        C  0.08192399  0.49705249  0.21154187     0.03560
C765        C  0.11313473  0.51190293  0.19332070    -0.10520
H766        H  0.12360629  0.58760640  0.18525132     0.09160
H767        H  0.03786304  0.49913844  0.21467313     0.06690
H768        H  0.12703460  0.49941531  0.19288494     0.06540
C769        C  0.04310396  0.87869905  0.32413441     0.03570
C770        C  0.01003122  0.86165130  0.31249539    -0.12580
C771        C  0.99609044  0.87827938  0.29338034     0.01070
C772        C  0.01342096  0.91213189  0.29672430    -0.11100
C773        C  0.04731544  0.92677326  0.29151034     0.03560
C774        C  0.06264552  0.91062221  0.30925471    -0.10520
H775        H  0.99628419  0.83555217  0.31512244     0.09160
H776        H  0.00151933  0.92518759  0.28583653     0.06690
H777        H  0.08896730  0.92193429  0.30971226     0.06540
C778        C  0.04715511  0.87958332  0.18321769     0.03570
C779        C  0.01494643  0.86121094  0.19937434    -0.12580
C780        C  0.99830619  0.87695843  0.21427931     0.01070
C781        C  0.01340568  0.91036331  0.20776391    -0.11100
C782        C  0.04740175  0.92723557  0.21178329     0.03560
C783        C  0.06414941  0.91303420  0.19312621    -0.10520
H784        H  0.00356883  0.83518464  0.20210770     0.09160
H785        H  0.00032885  0.92266712  0.21729118     0.06690
H786        H  0.08990330  0.92818768  0.18792018     0.06540
O787        O  0.16738147  0.78943631  0.05310244    -0.84910
O788        O  0.11241167  0.73250994  0.03070470    -0.81950
C789        C  0.09159573  0.73140429  0.05664358     0.98560
O790        O  0.08038244  0.75043294  0.05323693    -0.81990
O791        O  0.07761760  0.80489964  0.03152927    -0.84630
C792        C  0.09698065  0.82522560  0.05785652     1.03080
O793        O  0.12729012  0.83672036  0.05326576    -0.77390
O794        O  0.18467579  0.83876451  0.03149543    -0.77580
C795        C  0.18658523  0.81942931  0.05693659     1.03030
O796        O  0.18446799  0.80255287  0.46598874    -0.84900
O797        O  0.12639253  0.74916448  0.44370673    -0.81970
C798        C  0.09597261  0.73141615  0.43953278     0.98580
O799        O  0.07675858  0.73327558  0.46570466    -0.81990
O800        O  0.08012367  0.79055791  0.44441803    -0.84600
C801        C  0.09166093  0.82061981  0.44087995     1.03050
O802        O  0.11368442  0.84016895  0.46558535    -0.77420
O803        O  0.16855338  0.83611919  0.44445836    -0.77570
C804        C  0.18688032  0.82391509  0.44068607     1.03010
Cr805      Cr  0.14607297  0.77007624  0.49838950     1.93740
Cr806      Cr  0.08196500  0.77132847  0.49872642     1.93210
Cr807      Cr  0.14686115  0.83477798  0.49863336     1.39100
O808        O  0.12498946  0.79208944  0.49837798    -1.22650
C809        C  0.29579365  0.87822636  0.32340976     0.03570
C810        C  0.31168343  0.86094491  0.30978438    -0.12580
C811        C  0.34187839  0.87767877  0.28905080     0.01070
C812        C  0.35823721  0.91135071  0.29312821    -0.11100
C813        C  0.33861475  0.92553315  0.28844875     0.03560
C814        C  0.30732385  0.90919257  0.30580434    -0.10520
H815        H  0.30061523  0.83505255  0.31271294     0.09160
H816        H  0.38319241  0.92470475  0.28228982     0.06690
H817        H  0.29162880  0.91969505  0.30355744     0.06540
C818        C  0.29405223  0.87757761  0.17683065     0.03570
C819        C  0.30629501  0.90922917  0.19323475    -0.12580
C820        C  0.33800743  0.92584421  0.20975493     0.01070
C821        C  0.35730821  0.91128381  0.20430441    -0.11100
C822        C  0.34094330  0.87759341  0.20858357     0.03560
C823        C  0.31017904  0.86055498  0.18937082    -0.10520
H824        H  0.29092434  0.92014968  0.19479918     0.09160
H825        H  0.38249923  0.92468158  0.21430480     0.06690
H826        H  0.29875619  0.83456809  0.18635807     0.06540
C827        C  0.07577285  0.97865353  0.25193735     0.01010
C828        C  0.06056625  0.94605635  0.25192115     0.01010
C829        C  0.24751160  0.83040854  0.35663771    -0.11820
C830        C  0.26689802  0.86416782  0.35244281     0.05180
C831        C  0.25921660  0.88414664  0.37811017    -0.07110
C832        C  0.23156827  0.87007816  0.40388758    -0.07860
C833        C  0.21330269  0.83657968  0.40907608    -0.02410
C834        C  0.22218778  0.81652851  0.38615614     0.04410
N835        N  0.20651379  0.78223787  0.39270761     0.66920
H836        H  0.25241236  0.81424954  0.33807484     0.15810
H837        H  0.22593010  0.88564854  0.42290877     0.15530
N838        N  0.28053503  0.91845099  0.38163330     0.74620
O839        O  0.19842389  0.76355734  0.36124401    -0.38830
O840        O  0.20959630  0.77173700  0.42774618    -0.38770
O841        O  0.26884599  0.93723801  0.38189990    -0.39480
O842        O  0.30999062  0.92941457  0.39184859    -0.39540
C843        C  0.23340935  0.86668184  0.09062545    -0.11820
C844        C  0.21255860  0.83300250  0.08982321     0.05180
C845        C  0.21766008  0.81400362  0.11969989    -0.07110
C846        C  0.24296534  0.82912470  0.14936887    -0.07860
C847        C  0.26487059  0.86269619  0.14855046    -0.02410
C848        C  0.25979398  0.88151016  0.11828386     0.04410
N849        N  0.28230119  0.91535484  0.11287555     0.66920
H850        H  0.23037681  0.88185246  0.06791266     0.15810
H851        H  0.24593271  0.81413196  0.17235319     0.15530
N852        N  0.19854860  0.77940742  0.11951253     0.74620
O853        O  0.31180942  0.92478925  0.10459228    -0.38830
O854        O  0.27178348  0.93498462  0.10937528    -0.38770
O855        O  0.20049735  0.76364763  0.08864194    -0.39480
O856        O  0.18586889  0.76470438  0.15327811    -0.39540
C857        C  0.10595650  0.86194653  0.11893677    -0.11820
C858        C  0.08400051  0.83664645  0.09278735     0.05180
C859        C  0.05014621  0.82382364  0.09965130    -0.07110
C860        C  0.03952854  0.83801878  0.12985721    -0.07860
C861        C  0.06132743  0.86385180  0.15562710    -0.02410
C862        C  0.09526100  0.87528126  0.15052962     0.04410
N863        N  0.11945459  0.89988632  0.17702862     0.66920
H864        H  0.13193136  0.87153903  0.11500563     0.15810
H865        H  0.01354205  0.82876556  0.13247418     0.15530
N866        N  0.02592072  0.79632024  0.07674249     0.74620
O867        O  0.11772646  0.89658206  0.21641376    -0.38830
O868        O  0.14472162  0.92291592  0.16100796    -0.38770
O869        O  0.02559646  0.76969400  0.07886856    -0.39480
O870        O  0.00111044  0.79661294  0.06258710    -0.39540
C871        C  0.04506996  0.85807627  0.39371238    -0.11820
C872        C  0.05601538  0.86297908  0.35200117     0.05180
C873        C  0.07741774  0.85192842  0.33851910    -0.07110
C874        C  0.08870085  0.83785352  0.36821236    -0.07860
C875        C  0.07779016  0.83328482  0.40996750    -0.02410
C876        C  0.05514487  0.84278443  0.42258978     0.04410
N877        N  0.04132186  0.83603077  0.46405375     0.66920
H878        H  0.02784303  0.86560884  0.40359942     0.15810
H879        H  0.10567468  0.82991582  0.35870990     0.15530
N880        N  0.08674511  0.85348318  0.29512093     0.74620
O881        O  0.03439635  0.85555123  0.48210907    -0.38830
O882        O  0.03097230  0.80830151  0.47951842    -0.38770
O883        O  0.06741017  0.85116374  0.26622848    -0.39480
O884        O  0.11218412  0.85249953  0.28544864    -0.39540
C885        C  0.20798830  0.56815899  0.12409506    -0.11820
C886        C  0.20416343  0.58131447  0.08644719     0.05180
C887        C  0.17512290  0.58241109  0.07987720    -0.07110
C888        C  0.15128680  0.57124013  0.11122585    -0.07860
C889        C  0.15492864  0.55808945  0.14883454    -0.02410
C890        C  0.18389497  0.55682428  0.15568211     0.04410
N891        N  0.18992723  0.54560267  0.19476379     0.66920
H892        H  0.23043577  0.56777987  0.12956224     0.15810
H893        H  0.12876368  0.57137486  0.10521283     0.15530
N894        N  0.16846366  0.59297317  0.04075371     0.74620
O895        O  0.20779693  0.53280295  0.19554436    -0.38830
O896        O  0.18048149  0.55159768  0.22912300    -0.38770
O897        O  0.17177730  0.58142659  0.00644709    -0.39480
O898        O  0.15419263  0.60945496  0.04071128    -0.39540
C899        C  0.32168801  0.71444014  0.12755485    -0.11820
C900        C  0.33774726  0.71794472  0.08905251     0.05180
C901        C  0.36813887  0.74623531  0.08212330    -0.07110
C902        C  0.38192836  0.76958050  0.11392224    -0.07860
C903        C  0.36573771  0.76645446  0.15199164    -0.02410
C904        C  0.33533272  0.73830499  0.15930803     0.04410
N905        N  0.31857322  0.73315608  0.19883486     0.66920
H906        H  0.29877920  0.69257085  0.13334000     0.15810
H907        H  0.40463693  0.79159948  0.10768537     0.15530
N908        N  0.38436647  0.75282214  0.04213505     0.74620
O909        O  0.28803833  0.71512121  0.20066086    -0.38830
O910        O  0.33441003  0.74394581  0.23262600    -0.38770
O911        O  0.36897293  0.75117693  0.00895383    -0.39480
O912        O  0.41500014  0.76561963  0.04062799    -0.39540
C913        C  0.38022501  0.74792277  0.35478768    -0.11820
C914        C  0.36311080  0.76479039  0.34729240     0.05180
C915        C  0.33361221  0.75469932  0.36995189    -0.07110
C916        C  0.32264325  0.72912814  0.39841361    -0.07860
C917        C  0.34107745  0.71425068  0.40800209    -0.02410
C918        C  0.37051948  0.72412586  0.38601900     0.04410
N919        N  0.39225092  0.71239529  0.39708048     0.66920
H920        H  0.40233352  0.75397624  0.33802602     0.15810
H921        H  0.30003220  0.72204684  0.41495232     0.15530
N922        N  0.31533700  0.77129179  0.36731344     0.74620
O923        O  0.40614559  0.70511195  0.36854772    -0.38830
O924        O  0.40266234  0.71574461  0.43435556    -0.38770
O925        O  0.28535415  0.75564160  0.35845059    -0.39480
O926        O  0.32733082  0.79971707  0.38163284    -0.39540
C927        C  0.17685460  0.55054698  0.35161135    -0.11820
C928        C  0.15528915  0.56288934  0.34941221     0.05180
C929        C  0.16184403  0.59005037  0.37517072    -0.07110
C930        C  0.18939767  0.60393513  0.40132256    -0.07860
C931        C  0.20953224  0.59026458  0.40500508    -0.02410
C932        C  0.20324457  0.56334524  0.37962529     0.04410
N933        N  0.22374580  0.54906117  0.38122020     0.66920
H934        H  0.17363407  0.53089825  0.33129828     0.15810
H935        H  0.19356994  0.62403093  0.42158220     0.15530
N936        N  0.13968564  0.60242118  0.37800917     0.74620
O937        O  0.21127022  0.51868662  0.38051162    -0.38830
O938        O  0.25412699  0.56656433  0.37673086    -0.38770
O939        O  0.11034983  0.58387058  0.38816402    -0.39480
O940        O  0.15050831  0.63255982  0.37738825    -0.39540
C941        C  0.06037696  0.68468806  0.15905865    -0.11820
C942        C  0.05347897  0.65380205  0.14557456     0.05180
C943        C  0.05891876  0.64870543  0.10321886    -0.07110
C944        C  0.07194964  0.67485676  0.07561127    -0.07860
C945        C  0.07896491  0.70581086  0.08873940    -0.02410
C946        C  0.07352120  0.71106827  0.13117270     0.04410
N947        N  0.08255982  0.74287510  0.14688484     0.66920
H948        H  0.05643458  0.68836884  0.19171682     0.15810
H949        H  0.07565422  0.67076697  0.04299612     0.15530
N950        N  0.05052494  0.61707766  0.08737723     0.74620
O951        O  0.06778371  0.74613363  0.17802114    -0.38830
O952        O  0.10781302  0.76740688  0.13340644    -0.38770
O953        O  0.02469550  0.59238063  0.09917071    -0.39480
O954        O  0.06671383  0.61420979  0.05767778    -0.39540
C955        C  0.08234308  0.68352994  0.33751045    -0.11820
C956        C  0.05481560  0.65421957  0.34851685     0.05180
C957        C  0.04028958  0.65115487  0.38832544    -0.07110
C958        C  0.05402208  0.67720464  0.41642033    -0.07860
C959        C  0.08206049  0.70636530  0.40617626    -0.02410
C960        C  0.09579869  0.71013850  0.36544169     0.04410
N961        N  0.12179477  0.74079011  0.35098525     0.66920
H962        H  0.09267079  0.68588906  0.30642313     0.15810
H963        H  0.04333832  0.67410397  0.44742637     0.15530
N964        N  0.01246779  0.62140643  0.40155139     0.74620
O965        O  0.13893492  0.74174796  0.31991750    -0.38830
O966        O  0.12398143  0.76691856  0.36393815    -0.38770
O967        O  0.01164084  0.59474783  0.39577634    -0.39480
O968        O  0.99056690  0.62207480  0.42364538    -0.39540
C969        C  0.36015232  0.60696956  0.12273572    -0.11820
C970        C  0.33505779  0.58617809  0.09535558     0.05180
C971        C  0.32109951  0.55237962  0.10064709    -0.07110
C972        C  0.33458054  0.54048881  0.12965991    -0.07860
C973        C  0.36060145  0.56109810  0.15599265    -0.02410
C974        C  0.37254463  0.59497373  0.15372550     0.04410
N975        N  0.39645190  0.61751817  0.18272736     0.66920
H976        H  0.37018330  0.63286888  0.12017348     0.15810
H977        H  0.32473724  0.51455794  0.13082864     0.15530
N978        N  0.29318428  0.52955908  0.07703700     0.74620
O979        O  0.41701303  0.64562250  0.17080485    -0.38830
O980        O  0.39500425  0.61072095  0.22123965    -0.38770
O981        O  0.29353013  0.50619133  0.05853706    -0.39480
O982        O  0.26647982  0.52932900  0.08110929    -0.39540
C983        C  0.36294107  0.54996151  0.39373192    -0.11820
C984        C  0.36232037  0.55686475  0.35112421     0.05180
C985        C  0.34869232  0.57607879  0.33865484    -0.07110
C986        C  0.33688387  0.58872209  0.36985657    -0.07860
C987        C  0.33810607  0.58221690  0.41258931    -0.02410
C988        C  0.35112771  0.56242528  0.42472859     0.04410
N989        N  0.35154487  0.55371781  0.46786595     0.66920
H990        H  0.37312160  0.53490634  0.40300113     0.15810
H991        H  0.32624908  0.60341226  0.36083632     0.15530
N992        N  0.34580654  0.58221739  0.29504836     0.74620
O993        O  0.34540474  0.52542745  0.47669380    -0.38830
O994        O  0.36283191  0.57515212  0.49623768    -0.38770
O995        O  0.34116829  0.56131726  0.26725013    -0.39480
O996        O  0.34418584  0.60694768  0.28469112    -0.39540
C997        C  0.36120315  0.84584658  0.74747707     0.01010
C998        C  0.34718990  0.86454447  0.74834275     0.01010
C999        C  0.47783455  0.86479806  0.75316533     0.01010
C1000       C  0.44497255  0.84854116  0.75214816     0.01010
C1001       C  0.47501577  0.57506124  0.74750350     0.01010
C1002       C  0.44231483  0.55774963  0.74734066     0.01010
C1003       C  0.37616952  0.54301665  0.82156065     0.03570
C1004       C  0.40815539  0.56146434  0.80572806    -0.12580
C1005       C  0.42319040  0.54523769  0.78722562     0.01070
C1006       C  0.40780423  0.51170223  0.79299042    -0.11100
C1007       C  0.37369823  0.49536684  0.79059722     0.03560
C1008       C  0.35790570  0.51014582  0.81030171    -0.10520
H1009       H  0.42035159  0.58763347  0.80615250     0.09160
H1010       H  0.42023660  0.49917613  0.78173975     0.06690
H1011       H  0.33166019  0.49712942  0.81402115     0.06540
C1012       C  0.37609514  0.54596699  0.68129245     0.03570
C1013       C  0.35691030  0.51440289  0.69779150    -0.12580
C1014       C  0.37196593  0.49703881  0.71165964     0.01070
C1015       C  0.40543769  0.51072169  0.70401929    -0.11100
C1016       C  0.42364917  0.54447478  0.70714402     0.03560
C1017       C  0.41009185  0.56161790  0.68846972    -0.10520
H1018       H  0.33084357  0.50413316  0.70163779     0.09160
H1019       H  0.41714169  0.49709456  0.71329359     0.06690
H1020       H  0.42588984  0.58692413  0.68185806     0.06540
C1021       C  0.34376801  0.94470181  0.74955508     0.01010
C1022       C  0.35960805  0.97718349  0.75059094     0.01010
C1023       C  0.04142299  0.62660502  0.81892434     0.03570
C1024       C  0.06076811  0.61374538  0.80375768    -0.12580
C1025       C  0.04526035  0.58280048  0.78537808     0.01070
C1026       C  0.01142059  0.56419361  0.79079939    -0.11100
C1027       C  0.99426881  0.58109694  0.78713662     0.03560
C1028       C  0.00859110  0.61188622  0.80578045    -0.10740
H1029       H  0.08711954  0.62780214  0.80495013     0.09160
H1030       H  0.99945453  0.53925867  0.78029640     0.06690
H1031       H  0.99510354  0.62475498  0.80828803     0.06540
C1032       C  0.04076621  0.62669488  0.67536971     0.03570
C1033       C  0.05997444  0.61295871  0.68758785    -0.12580
C1034       C  0.04467410  0.58212417  0.70585558     0.01070
C1035       C  0.01065976  0.56409964  0.70202375    -0.11100
C1036       C  0.99417667  0.58156458  0.70773336     0.03560
C1037       C  0.00848425  0.61256313  0.69012572    -0.10520
H1038       H  0.08626701  0.62663638  0.68483548     0.09160
H1039       H  0.99859927  0.53916640  0.71214818     0.06690
H1040       H  0.99529620  0.62578108  0.68926288     0.06540
C1041       C  0.05847062  0.57685209  0.74551371     0.01010
C1042       C  0.07420896  0.55980535  0.74574601     0.01010
C1043       C  0.12560760  0.54648064  0.82193499     0.03570
C1044       C  0.11255372  0.56428343  0.80265839    -0.12580
C1045       C  0.08099786  0.54791754  0.78575846     0.01070
C1046       C  0.06258116  0.51459374  0.79312245    -0.11100
C1047       C  0.08001103  0.49788746  0.79151909     0.03560
C1048       C  0.11049474  0.51297989  0.81166498    -0.10520
H1049       H  0.12726442  0.59021608  0.79891213     0.09160
H1050       H  0.03749014  0.50201557  0.78260597     0.06690
H1051       H  0.12246665  0.49898439  0.81685036     0.06540
C1052       C  0.37786898  0.79448147  0.81980501     0.03570
C1053       C  0.35863728  0.80627406  0.80093085    -0.12580
C1054       C  0.37348646  0.83834385  0.78662968     0.01070
C1055       C  0.40684091  0.85797596  0.79463429    -0.11100
C1056       C  0.42524498  0.84237456  0.79162748     0.03560
C1057       C  0.41171738  0.81173337  0.81012144    -0.10520
H1058       H  0.33295890  0.79035562  0.79496333     0.09160
H1059       H  0.41830622  0.88304006  0.78509957     0.06690
H1060       H  0.42731264  0.80138778  0.81387007     0.06540
O1061       O  0.23623096  0.58176403  0.96231977    -0.84910
O1062       O  0.29456197  0.58506323  0.94510374    -0.81950
C1063       C  0.32471986  0.59538134  0.94371408     0.98560
O1064       O  0.34359836  0.61640064  0.96969491    -0.81990
O1065       O  0.34016756  0.67042155  0.94621571    -0.84630
C1066       C  0.32896404  0.68942890  0.94173861     1.03080
O1067       O  0.30744952  0.68810041  0.96683971    -0.77390
O1068       O  0.25172755  0.63201637  0.94564462    -0.77580
C1069       C  0.23424532  0.60206181  0.93888361     1.03030
O1070       O  0.24924245  0.58275297  0.55083347    -0.84900
O1071       O  0.30519169  0.58111079  0.53302119    -0.81970
C1072       C  0.32509569  0.59994087  0.56027047     0.98580
O1073       O  0.33766784  0.63017295  0.55613444    -0.81990
O1074       O  0.34291902  0.68819063  0.53263979    -0.84600
C1075       C  0.32382606  0.69133822  0.55749769     1.03050
O1076       O  0.29349187  0.67245954  0.55460322    -0.77420
O1077       O  0.23507983  0.61842830  0.53270438    -0.77570
C1078       C  0.23103323  0.59492716  0.55526168     1.03010
Cr1079     Cr  0.27297393  0.58604433  0.99796776     1.93740
Cr1080     Cr  0.33770775  0.64964845  0.00107342     1.93210
Cr1081     Cr  0.27355521  0.65098267  0.00004468     1.39100
O1082       O  0.29455772  0.62881966  0.99969346    -1.22650
C1083       C  0.37922421  0.79547610  0.67947910     0.03570
C1084       C  0.36026874  0.80987781  0.68998696    -0.12580
C1085       C  0.37543383  0.84086966  0.70798461     0.01070
C1086       C  0.40959201  0.85885746  0.70542016    -0.11100
C1087       C  0.42612142  0.84153226  0.71175093     0.03560
C1088       C  0.41173178  0.81023116  0.69426385    -0.10520
H1089       H  0.33401018  0.79655000  0.68655921     0.09160
H1090       H  0.42140118  0.88374318  0.71616803     0.06690
H1091       H  0.42471114  0.79680078  0.69450679     0.06540
C1092       C  0.12639721  0.54369756  0.67752427     0.03570
C1093       C  0.11082980  0.56153760  0.68842344    -0.12580
C1094       C  0.07976652  0.54564488  0.70662583     0.01070
C1095       C  0.06300740  0.51179178  0.70444801    -0.11100
C1096       C  0.08192397  0.49705249  0.71154187     0.03560
C1097       C  0.11313471  0.51190293  0.69332071    -0.10520
H1098       H  0.12360628  0.58760641  0.68525133     0.09160
H1099       H  0.03786303  0.49913845  0.71467313     0.06690
H1100       H  0.12703458  0.49941531  0.69288494     0.06540
C1101       C  0.04310395  0.87869905  0.82413442     0.03570
C1102       C  0.01003121  0.86165130  0.81249539    -0.12580
C1103       C  0.99609043  0.87827937  0.79338034     0.01070
C1104       C  0.01342095  0.91213188  0.79672429    -0.11100
C1105       C  0.04731543  0.92677325  0.79151034     0.03560
C1106       C  0.06264551  0.91062220  0.80925472    -0.10520
H1107       H  0.99628418  0.83555216  0.81512244     0.09160
H1108       H  0.00151932  0.92518759  0.78583653     0.06690
H1109       H  0.08896729  0.92193428  0.80971227     0.06540
C1110       C  0.04715510  0.87958331  0.68321769     0.03570
C1111       C  0.01494643  0.86121093  0.69937434    -0.12580
C1112       C  0.99830618  0.87695842  0.71427930     0.01070
C1113       C  0.01340567  0.91036330  0.70776391    -0.11100
C1114       C  0.04740174  0.92723556  0.71178329     0.03560
C1115       C  0.06414941  0.91303419  0.69312622    -0.10520
H1116       H  0.00356883  0.83518463  0.70210770     0.09160
H1117       H  0.00032884  0.92266711  0.71729118     0.06690
H1118       H  0.08990330  0.92818767  0.68792020     0.06540
O1119       O  0.16738147  0.78943631  0.55310245    -0.84910
O1120       O  0.11241167  0.73250994  0.53070471    -0.81950
C1121       C  0.09159573  0.73140429  0.55664358     0.98560
O1122       O  0.08038244  0.75043294  0.55323692    -0.81990
O1123       O  0.07761760  0.80489964  0.53152927    -0.84630
C1124       C  0.09698065  0.82522560  0.55785652     1.03080
O1125       O  0.12729012  0.83672035  0.55326576    -0.77390
O1126       O  0.18467579  0.83876451  0.53149543    -0.77580
C1127       C  0.18658524  0.81942931  0.55693659     1.03030
O1128       O  0.18446799  0.80255286  0.96598873    -0.84900
O1129       O  0.12639252  0.74916448  0.94370673    -0.81970
C1130       C  0.09597260  0.73141615  0.93953277     0.98580
O1131       O  0.07675858  0.73327558  0.96570467    -0.81990
O1132       O  0.08012367  0.79055791  0.94441803    -0.84600
C1133       C  0.09166093  0.82061981  0.94087995     1.03050
O1134       O  0.11368442  0.84016895  0.96558534    -0.77420
O1135       O  0.16855338  0.83611919  0.94445836    -0.77570
C1136       C  0.18688033  0.82391509  0.94068607     1.03010
Cr1137     Cr  0.14607297  0.77007623  0.99838949     1.93740
Cr1138     Cr  0.08196500  0.77132847  0.99872642     1.93210
Cr1139     Cr  0.14686115  0.83477798  0.99863336     1.39100
O1140       O  0.12498947  0.79208944  0.99837798    -1.22650
C1141       C  0.29579366  0.87822637  0.82340976     0.03570
C1142       C  0.31168345  0.86094493  0.80978437    -0.12580
C1143       C  0.34187840  0.87767878  0.78905079     0.01070
C1144       C  0.35823722  0.91135072  0.79312820    -0.11100
C1145       C  0.33861475  0.92553317  0.78844874     0.03560
C1146       C  0.30732385  0.90919259  0.80580434    -0.10520
H1147       H  0.30061525  0.83505257  0.81271293     0.09160
H1148       H  0.38319242  0.92470477  0.78228982     0.06690
H1149       H  0.29162880  0.91969506  0.80355743     0.06540
C1150       C  0.29405224  0.87757762  0.67683065     0.03570
C1151       C  0.30629501  0.90922918  0.69323475    -0.12580
C1152       C  0.33800743  0.92584423  0.70975493     0.01070
C1153       C  0.35730822  0.91128384  0.70430441    -0.11100
C1154       C  0.34094332  0.87759343  0.70858356     0.03560
C1155       C  0.31017906  0.86055500  0.68937081    -0.10520
H1156       H  0.29092434  0.92014968  0.69479919     0.09160
H1157       H  0.38249924  0.92468160  0.71430479     0.06690
H1158       H  0.29875621  0.83456811  0.68635805     0.06540
C1159       C  0.07577285  0.97865352  0.75193735     0.01010
C1160       C  0.06056624  0.94605634  0.75192115     0.01010
C1161       C  0.24751161  0.83040855  0.85663772    -0.11820
C1162       C  0.26689803  0.86416783  0.85244281     0.05180
C1163       C  0.25921660  0.88414665  0.87811017    -0.07110
C1164       C  0.23156827  0.87007817  0.90388757    -0.07860
C1165       C  0.21330270  0.83657969  0.90907608    -0.02410
C1166       C  0.22218780  0.81652851  0.88615615     0.04410
N1167       N  0.20651382  0.78223788  0.89270764     0.66920
H1168       H  0.25241238  0.81424955  0.83807486     0.15810
H1169       H  0.22593010  0.88564854  0.92290876     0.15530
N1170       N  0.28053502  0.91845100  0.88163330     0.74620
O1171       O  0.19842393  0.76355734  0.86124405    -0.38830
O1172       O  0.20959634  0.77173702  0.92774621    -0.38770
O1173       O  0.26884598  0.93723801  0.88189989    -0.39480
O1174       O  0.30999062  0.92941458  0.89184858    -0.39540
C1175       C  0.23340934  0.86668184  0.59062547    -0.11820
C1176       C  0.21255861  0.83300251  0.58982320     0.05180
C1177       C  0.21766011  0.81400363  0.61969985    -0.07110
C1178       C  0.24296537  0.82912470  0.64936884    -0.07860
C1179       C  0.26487060  0.86269620  0.64855045    -0.02410
C1180       C  0.25979397  0.88151017  0.61828387     0.04410
N1181       N  0.28230117  0.91535486  0.61287558     0.66920
H1182       H  0.23037678  0.88185247  0.56791269     0.15810
H1183       H  0.24593276  0.81413196  0.67235314     0.15530
N1184       N  0.19854866  0.77940742  0.61951246     0.74620
O1185       O  0.31180940  0.92478929  0.60459229    -0.38830
O1186       O  0.27178344  0.93498462  0.60937533    -0.38770
O1187       O  0.20049742  0.76364766  0.58864184    -0.39480
O1188       O  0.18586897  0.76470435  0.65327803    -0.39540
C1189       C  0.10595649  0.86194653  0.61893676    -0.11820
C1190       C  0.08400051  0.83664644  0.59278735     0.05180
C1191       C  0.05014621  0.82382362  0.59965131    -0.07110
C1192       C  0.03952854  0.83801877  0.62985722    -0.07860
C1193       C  0.06132743  0.86385179  0.65562710    -0.02410
C1194       C  0.09526099  0.87528126  0.65052960     0.04410
N1195       N  0.11945459  0.89988633  0.67702859     0.66920
H1196       H  0.13193136  0.87153904  0.61500561     0.15810
H1197       H  0.01354204  0.82876554  0.63247420     0.15530
N1198       N  0.02592072  0.79632022  0.57674251     0.74620
O1199       O  0.11772652  0.89658205  0.71641372    -0.38830
O1200       O  0.14472158  0.92291597  0.66100789    -0.38770
O1201       O  0.02559647  0.76969398  0.57886857    -0.39480
O1202       O  0.00111043  0.79661291  0.56258712    -0.39540
C1203       C  0.04506990  0.85807621  0.89371237    -0.11820
C1204       C  0.05601537  0.86297907  0.85200118     0.05180
C1205       C  0.07741778  0.85192847  0.83851912    -0.07110
C1206       C  0.08870089  0.83785356  0.86821238    -0.07860
C1207       C  0.07779015  0.83328482  0.90996750    -0.02410
C1208       C  0.05514482  0.84278437  0.92258977     0.04410
N1209       N  0.04132178  0.83603066  0.96405372     0.66920
H1210       H  0.02784295  0.86560874  0.90359940     0.15810
H1211       H  0.10567476  0.82991591  0.85870993     0.15530
N1212       N  0.08674519  0.85348327  0.79512096     0.74620
O1213       O  0.03439622  0.85555109  0.98210905    -0.38830
O1214       O  0.03097225  0.80830141  0.97951836    -0.38770
O1215       O  0.06741025  0.85116382  0.76622849    -0.39480
O1216       O  0.11218422  0.85249966  0.78544870    -0.39540
C1217       C  0.20798830  0.56815900  0.62409510    -0.11820
C1218       C  0.20416343  0.58131448  0.58644722     0.05180
C1219       C  0.17512290  0.58241110  0.57987722    -0.07110
C1220       C  0.15128680  0.57124014  0.61122586    -0.07860
C1221       C  0.15492864  0.55808945  0.64883456    -0.02410
C1222       C  0.18389496  0.55682428  0.65568214     0.04410
N1223       N  0.18992721  0.54560267  0.69476382     0.66920
H1224       H  0.23043576  0.56777987  0.62956228     0.15810
H1225       H  0.12876368  0.57137487  0.60521284     0.15530
N1226       N  0.16846367  0.59297318  0.54075373     0.74620
O1227       O  0.20779691  0.53280295  0.69554440    -0.38830
O1228       O  0.18048146  0.55159768  0.72912303    -0.38770
O1229       O  0.17177731  0.58142660  0.50644712    -0.39480
O1230       O  0.15419265  0.60945498  0.54071130    -0.39540
C1231       C  0.32168803  0.71444015  0.62755487    -0.11820
C1232       C  0.33774728  0.71794473  0.58905253     0.05180
C1233       C  0.36813889  0.74623532  0.58212331    -0.07110
C1234       C  0.38192837  0.76958052  0.61392225    -0.07860
C1235       C  0.36573773  0.76645448  0.65199165    -0.02410
C1236       C  0.33533274  0.73830501  0.65930804     0.04410
N1237       N  0.31857324  0.73315610  0.69883487     0.66920
H1238       H  0.29877922  0.69257086  0.63334002     0.15810
H1239       H  0.40463695  0.79159949  0.60768537     0.15530
N1240       N  0.38436648  0.75282213  0.54213506     0.74620
O1241       O  0.28803835  0.71512124  0.70066087    -0.38830
O1242       O  0.33441006  0.74394584  0.73262601    -0.38770
O1243       O  0.36897294  0.75117692  0.50895384    -0.39480
O1244       O  0.41500015  0.76561962  0.54062800    -0.39540
C1245       C  0.38022504  0.74792280  0.85478770    -0.11820
C1246       C  0.36311082  0.76479041  0.84729238     0.05180
C1247       C  0.33361221  0.75469931  0.86995185    -0.07110
C1248       C  0.32264324  0.72912813  0.89841356    -0.07860
C1249       C  0.34107745  0.71425069  0.90800208    -0.02410
C1250       C  0.37051950  0.72412590  0.88601902     0.04410
N1251       N  0.39225096  0.71239534  0.89708054     0.66920
H1252       H  0.40233356  0.75397629  0.83802607     0.15810
H1253       H  0.30003218  0.72204681  0.91495225     0.15530
N1254       N  0.31533698  0.77129176  0.86731337     0.74620
O1255       O  0.40614567  0.70511204  0.86854781    -0.38830
O1256       O  0.40266234  0.71574466  0.93435564    -0.38770
O1257       O  0.28535414  0.75564156  0.85845047    -0.39480
O1258       O  0.32733077  0.79971704  0.88163280    -0.39540
C1259       C  0.17685459  0.55054699  0.85161132    -0.11820
C1260       C  0.15528913  0.56288934  0.84941219     0.05180
C1261       C  0.16184401  0.59005037  0.87517071    -0.07110
C1262       C  0.18939766  0.60393513  0.90132254    -0.07860
C1263       C  0.20953223  0.59026458  0.90500505    -0.02410
C1264       C  0.20324456  0.56334525  0.87962525     0.04410
N1265       N  0.22374580  0.54906118  0.88122015     0.66920
H1266       H  0.17363406  0.53089826  0.83129824     0.15810
H1267       H  0.19356993  0.62403092  0.92158218     0.15530
N1268       N  0.13968562  0.60242118  0.87800917     0.74620
O1269       O  0.21127023  0.51868664  0.88051155    -0.38830
O1270       O  0.25412699  0.56656435  0.87673082    -0.38770
O1271       O  0.11034981  0.58387057  0.88816402    -0.39480
O1272       O  0.15050829  0.63255981  0.87738826    -0.39540
C1273       C  0.06037695  0.68468806  0.65905865    -0.11820
C1274       C  0.05347895  0.65380204  0.64557456     0.05180
C1275       C  0.05891873  0.64870543  0.60321886    -0.07110
C1276       C  0.07194962  0.67485676  0.57561126    -0.07860
C1277       C  0.07896490  0.70581086  0.58873940    -0.02410
C1278       C  0.07352120  0.71106827  0.63117270     0.04410
N1279       N  0.08255983  0.74287510  0.64688484     0.66920
H1280       H  0.05643458  0.68836885  0.69171682     0.15810
H1281       H  0.07565419  0.67076696  0.54299611     0.15530
N1282       N  0.05052490  0.61707765  0.58737722     0.74620
O1283       O  0.06778373  0.74613364  0.67802115    -0.38830
O1284       O  0.10781303  0.76740688  0.63340644    -0.38770
O1285       O  0.02469546  0.59238063  0.59917070    -0.39480
O1286       O  0.06671378  0.61420977  0.55767776    -0.39540
C1287       C  0.08234307  0.68352993  0.83751045    -0.11820
C1288       C  0.05481558  0.65421957  0.84851685     0.05180
C1289       C  0.04028955  0.65115488  0.88832543    -0.07110
C1290       C  0.05402206  0.67720465  0.91642031    -0.07860
C1291       C  0.08206048  0.70636530  0.90617626    -0.02410
C1292       C  0.09579869  0.71013849  0.86544169     0.04410
N1293       N  0.12179479  0.74079010  0.85098526     0.66920
H1294       H  0.09267079  0.68588904  0.80642314     0.15810
H1295       H  0.04333828  0.67410399  0.94742635     0.15530
N1296       N  0.01246774  0.62140645  0.90155137     0.74620
O1297       O  0.13893495  0.74174793  0.81991754    -0.38830
O1298       O  0.12398145  0.76691855  0.86393814    -0.38770
O1299       O  0.01164078  0.59474784  0.89577634    -0.39480
O1300       O  0.99056685  0.62207483  0.92364534    -0.39540
C1301       C  0.36015234  0.60696956  0.62273574    -0.11820
C1302       C  0.33505781  0.58617809  0.59535560     0.05180
C1303       C  0.32109955  0.55237962  0.60064710    -0.07110
C1304       C  0.33458057  0.54048881  0.62965992    -0.07860
C1305       C  0.36060148  0.56109810  0.65599266    -0.02410
C1306       C  0.37254466  0.59497373  0.65372551     0.04410
N1307       N  0.39645194  0.61751817  0.68272736     0.66920
H1308       H  0.37018332  0.63286888  0.62017349     0.15810
H1309       H  0.32473728  0.51455794  0.63082864     0.15530
N1310       N  0.29318432  0.52955907  0.57703700     0.74620
O1311       O  0.41701307  0.64562250  0.67080485    -0.38830
O1312       O  0.39500430  0.61072095  0.72123965    -0.38770
O1313       O  0.29353021  0.50619136  0.55853700    -0.39480
O1314       O  0.26647985  0.52932896  0.58110931    -0.39540
C1315       C  0.36294107  0.54996151  0.89373193    -0.11820
C1316       C  0.36232039  0.55686475  0.85112421     0.05180
C1317       C  0.34869235  0.57607880  0.83865483    -0.07110
C1318       C  0.33688390  0.58872210  0.86985655    -0.07860
C1319       C  0.33810608  0.58221691  0.91258929    -0.02410
C1320       C  0.35112771  0.56242528  0.92472858     0.04410
N1321       N  0.35154485  0.55371780  0.96786594     0.66920
H1322       H  0.37312160  0.53490634  0.90300114     0.15810
H1323       H  0.32624912  0.60341228  0.86083629     0.15530
N1324       N  0.34580659  0.58221741  0.79504834     0.74620
O1325       O  0.34540470  0.52542744  0.97669380    -0.38830
O1326       O  0.36283190  0.57515212  0.99623768    -0.38770
O1327       O  0.34116834  0.56131728  0.76725012    -0.39480
O1328       O  0.34418590  0.60694771  0.78469110    -0.39540
C1329       C  0.86118635  0.34584302  0.24748021     0.01010
C1330       C  0.84717681  0.36454443  0.24834526     0.01010
C1331       C  0.97782707  0.36479935  0.25316939     0.01010
C1332       C  0.94496545  0.34855792  0.25215266     0.01010
C1333       C  0.97505064  0.07503872  0.24750258     0.01010
C1334       C  0.94234952  0.05773577  0.24734121     0.01010
C1335       C  0.87621269  0.04302286  0.32156291     0.03570
C1336       C  0.90819939  0.06146257  0.30573052    -0.12580
C1337       C  0.92322566  0.04522803  0.28722702     0.01070
C1338       C  0.90783063  0.01169208  0.29299150    -0.11100
C1339       C  0.87372474  0.99536550  0.29059938     0.03560
C1340       C  0.85794031  0.01015261  0.31030425    -0.10520
H1341       H  0.92040262  0.08763200  0.30615495     0.09160
H1342       H  0.92025635  0.99915971  0.28173965     0.06690
H1343       H  0.83169478  0.99714314  0.31402397     0.06540
C1344       C  0.87613366  0.04597182  0.18129632     0.03570
C1345       C  0.85694294  0.01440892  0.19779571    -0.12580
C1346       C  0.87199163  0.99703819  0.21166219     0.01070
C1347       C  0.90546230  0.01071318  0.20402012    -0.11100
C1348       C  0.92368116  0.04446581  0.20714546     0.03560
C1349       C  0.91013010  0.06161583  0.18847373    -0.10520
H1350       H  0.83087700  0.00414497  0.20164295     0.09160
H1351       H  0.91716068  0.99708049  0.21329311     0.06690
H1352       H  0.92593241  0.08692160  0.18186360     0.06540
C1353       C  0.84375339  0.44470161  0.24955345     0.01010
C1354       C  0.85958584  0.47718327  0.25058856     0.01010
C1355       C  0.54144911  0.12659532  0.31892502     0.03570
C1356       C  0.56080384  0.11374743  0.30375476    -0.12580
C1357       C  0.54530571  0.08280270  0.28537412     0.01070
C1358       C  0.51146696  0.06418534  0.29079654    -0.11100
C1359       C  0.49430443  0.08107798  0.28713575     0.03560
C1360       C  0.50861636  0.11186579  0.30578229    -0.10740
H1361       H  0.58715481  0.12781263  0.30494565     0.09160
H1362       H  0.49950869  0.03925068  0.28029332     0.06690
H1363       H  0.49512045  0.12472607  0.30829144     0.06540
C1364       C  0.54078967  0.12668453  0.17536520     0.03570
C1365       C  0.56000802  0.11295961  0.18758329    -0.12580
C1366       C  0.54471778  0.08212544  0.20585194     0.01070
C1367       C  0.51070386  0.06409050  0.20202151    -0.11100
C1368       C  0.49421033  0.08154522  0.20773102     0.03560
C1369       C  0.50850716  0.11254243  0.19012125    -0.10520
H1370       H  0.58630022  0.12664538  0.18483023     0.09160
H1371       H  0.49865143  0.03915758  0.21214642     0.06690
H1372       H  0.49531093  0.12575227  0.18925808     0.06540
C1373       C  0.55852019  0.07686013  0.24550924     0.01010
C1374       C  0.57426273  0.05981738  0.24574073     0.01010
C1375       C  0.62565806  0.04648508  0.32192733     0.03570
C1376       C  0.61260918  0.06429097  0.30264725    -0.12580
C1377       C  0.58105167  0.04792934  0.28575259     0.01070
C1378       C  0.56262955  0.01460649  0.29312090    -0.11100
C1379       C  0.58005345  0.99789416  0.29151832     0.03560
C1380       C  0.61053879  0.01298315  0.31166073    -0.10520
H1381       H  0.62732450  0.09022255  0.29889448     0.09160
H1382       H  0.53753820  0.00203207  0.28260536     0.06690
H1383       H  0.62250612  0.99898349  0.31684658     0.06540
C1384       C  0.87787155  0.29449112  0.31980965     0.03570
C1385       C  0.85863244  0.30627488  0.30093449    -0.12580
C1386       C  0.87347342  0.33834435  0.28663281     0.01070
C1387       C  0.90682688  0.35798426  0.29463745    -0.11100
C1388       C  0.92523914  0.34239134  0.29163305     0.03560
C1389       C  0.91171999  0.31175243  0.31013057    -0.10520
H1390       H  0.83295452  0.29035067  0.29497010     0.09160
H1391       H  0.91828609  0.38304780  0.28510191     0.06690
H1392       H  0.92732278  0.30141455  0.31388648     0.06540
O1393       O  0.73628076  0.08176778  0.46232082    -0.84910
O1394       O  0.79461772  0.08508113  0.44510073    -0.81950
C1395       C  0.82477635  0.09540324  0.44371150     0.98560
O1396       O  0.84365289  0.11642335  0.46969315    -0.81990
O1397       O  0.84021193  0.17044022  0.44621987    -0.84630
C1398       C  0.82900130  0.18944180  0.44174345     1.03080
O1399       O  0.80748550  0.18810798  0.46684621    -0.77390
O1400       O  0.75177280  0.13201834  0.44564338    -0.77580
C1401       C  0.73429327  0.10206342  0.43888256     1.03030
O1402       O  0.74929506  0.08275710  0.05083355    -0.84900
O1403       O  0.80525031  0.08112642  0.03301488    -0.81970
C1404       C  0.82514912  0.09995604  0.06026860     0.98580
O1405       O  0.83771766  0.13018808  0.05613570    -0.81990
O1406       O  0.84295680  0.18820222  0.03264698    -0.84600
C1407       C  0.82385937  0.19134445  0.05750297     1.03050
O1408       O  0.79352626  0.17246107  0.05460615    -0.77420
O1409       O  0.73512163  0.11842387  0.03270189    -0.77570
C1410       C  0.73108034  0.09492524  0.05526053     1.03010
Cr1411     Cr  0.77302757  0.08605445  0.49796607     1.93740
Cr1412     Cr  0.83775491  0.14966520  0.50107608     1.93210
Cr1413     Cr  0.77359496  0.15098497  0.50004603     1.39100
O1414       O  0.79460486  0.12882955  0.49969458    -1.22650
C1415       C  0.87922575  0.29548385  0.17948301     0.03570
C1416       C  0.86026228  0.30987680  0.18999189    -0.12580
C1417       C  0.87542003  0.34086901  0.20798858     0.01070
C1418       C  0.90957783  0.35886456  0.20542406    -0.11100
C1419       C  0.92611492  0.34154699  0.21175508     0.03560
C1420       C  0.91173372  0.31024705  0.19426682    -0.10520
H1421       H  0.83400384  0.29654262  0.18656464     0.09160
H1422       H  0.92138130  0.38375021  0.21617143     0.06690
H1423       H  0.92471968  0.29682310  0.19450925     0.06540
C1424       C  0.62644605  0.04369922  0.17752592     0.03570
C1425       C  0.61088195  0.06154317  0.18842055    -0.12580
C1426       C  0.57981802  0.04565467  0.20662114     0.01070
C1427       C  0.56305485  0.01180146  0.20444480    -0.11100
C1428       C  0.58196724  0.99705807  0.21154260     0.03560
C1429       C  0.61317983  0.01190524  0.19332603    -0.10520
H1430       H  0.62366113  0.08761178  0.18524549     0.09160
H1431       H  0.53791026  0.99915171  0.21466956     0.06690
H1432       H  0.62707767  0.99941546  0.19289469     0.06540
C1433       C  0.54309703  0.37869397  0.32413244     0.03570
C1434       C  0.51002382  0.36164832  0.31249583    -0.12580
C1435       C  0.49608418  0.37827838  0.29338364     0.01070
C1436       C  0.51341641  0.41213065  0.29672817    -0.11100
C1437       C  0.54731030  0.42676977  0.29151048     0.03560
C1438       C  0.56263977  0.41061655  0.30925086    -0.10520
H1439       H  0.49627506  0.33554928  0.31512341     0.09160
H1440       H  0.50151560  0.42518743  0.28584126     0.06690
H1441       H  0.58896144  0.42192711  0.30970600     0.06540
C1442       C  0.54714565  0.37957674  0.18322284     0.03570
C1443       C  0.51493692  0.36120643  0.19937991    -0.12580
C1444       C  0.49829837  0.37695622  0.21428291     0.01070
C1445       C  0.51339915  0.41036075  0.20776500    -0.11100
C1446       C  0.54739508  0.42723136  0.21178498     0.03560
C1447       C  0.56414175  0.41302779  0.19313090    -0.10520
H1448       H  0.50355778  0.33518010  0.20211445     0.09160
H1449       H  0.50032358  0.42266592  0.21729229     0.06690
H1450       H  0.58989576  0.42818024  0.18792466     0.06540
O1451       O  0.66736975  0.28943043  0.05310388    -0.84910
O1452       O  0.61240503  0.23250163  0.03069955    -0.81950
C1453       C  0.59158830  0.23139250  0.05663940     0.98560
O1454       O  0.58037172  0.25041858  0.05323519    -0.81990
O1455       O  0.57760118  0.30488382  0.03153521    -0.84630
C1456       C  0.59696441  0.32521234  0.05786044     1.03080
O1457       O  0.62727403  0.33670921  0.05326816    -0.77390
O1458       O  0.68466148  0.33875831  0.03149765    -0.77580
C1459       C  0.68657182  0.31942366  0.05693892     1.03030
O1460       O  0.68445901  0.30255221  0.46599184    -0.84900
O1461       O  0.62638736  0.24916171  0.44370491    -0.81970
C1462       C  0.59596800  0.23141053  0.43952913     0.98580
O1463       O  0.57675110  0.23326703  0.46569936    -0.81990
O1464       O  0.58010893  0.29054764  0.44442059    -0.84600
C1465       C  0.59164515  0.32060948  0.44088326     1.03050
O1466       O  0.61366770  0.34015873  0.46558937    -0.77420
O1467       O  0.66853891  0.33611380  0.44446026    -0.77570
C1468       C  0.68686856  0.32391278  0.44068837     1.03010
Cr1469     Cr  0.64606450  0.27007163  0.49838906     1.93740
Cr1470     Cr  0.58195254  0.27131646  0.49872681     1.93210
Cr1471     Cr  0.64684590  0.33476964  0.49863578     1.39100
O1472       O  0.62497713  0.29208107  0.49837878    -1.22650
C1473       C  0.79578128  0.37822744  0.32341131     0.03570
C1474       C  0.81167205  0.36094658  0.30978740    -0.12580
C1475       C  0.84186641  0.37768028  0.28905274     0.01070
C1476       C  0.85822450  0.41135238  0.29312818    -0.11100
C1477       C  0.83860133  0.42553399  0.28844802     0.03560
C1478       C  0.80731061  0.40919312  0.30580437    -0.10520
H1479       H  0.80060487  0.33505443  0.31271715     0.09160
H1480       H  0.88317957  0.42470662  0.28228942     0.06690
H1481       H  0.79161479  0.41969462  0.30355601     0.06540
C1482       C  0.79403882  0.37757598  0.17683161     0.03570
C1483       C  0.80628160  0.40922805  0.19323376    -0.12580
C1484       C  0.83799395  0.42584371  0.20975389     0.01070
C1485       C  0.85729482  0.41128321  0.20430503    -0.11100
C1486       C  0.84093009  0.37759285  0.20858554     0.03560
C1487       C  0.81016584  0.36055384  0.18937295    -0.10520
H1488       H  0.79091075  0.42014840  0.19479730     0.09160
H1489       H  0.88248589  0.42468139  0.21430505     0.06690
H1490       H  0.79874307  0.33456688  0.18636139     0.06540
C1491       C  0.57573772  0.47865003  0.25193713     0.01010
C1492       C  0.56055800  0.44605407  0.25192161     0.01010
C1493       C  0.74750163  0.33040889  0.35664190    -0.11820
C1494       C  0.76688518  0.36416824  0.35244379     0.05180
C1495       C  0.75920070  0.38414638  0.37810806    -0.07110
C1496       C  0.73155240  0.37007681  0.40388556    -0.07860
C1497       C  0.71329034  0.33657850  0.40907773    -0.02410
C1498       C  0.72217857  0.31652842  0.38616108     0.04410
N1499       N  0.70650915  0.28223861  0.39271760     0.66920
H1500       H  0.75240426  0.31425009  0.33808159     0.15810
H1501       H  0.72591187  0.38564657  0.42290441     0.15530
N1502       N  0.78051622  0.41845137  0.38162858     0.74620
O1503       O  0.69841873  0.26355547  0.36125670    -0.38830
O1504       O  0.70959715  0.27174231  0.42775683    -0.38770
O1505       O  0.76882421  0.43723588  0.38189150    -0.39480
O1506       O  0.80997190  0.42941821  0.39184595    -0.39540
C1507       C  0.73339496  0.36667726  0.09062675    -0.11820
C1508       C  0.71254464  0.33299786  0.08982593     0.05180
C1509       C  0.71764627  0.31399998  0.11970400    -0.07110
C1510       C  0.74295171  0.32912208  0.14937249    -0.07860
C1511       C  0.76485683  0.36269357  0.14855224    -0.02410
C1512       C  0.75977969  0.38150656  0.11828468     0.04410
N1513       N  0.78228651  0.41535116  0.11287476     0.66920
H1514       H  0.73036215  0.38184714  0.06791300     0.15810
H1515       H  0.74591932  0.31413013  0.17235785     0.15530
N1516       N  0.69853463  0.27940379  0.11951875     0.74620
O1517       O  0.81179465  0.42478562  0.10459081    -0.38830
O1518       O  0.77176840  0.43498055  0.10937349    -0.38770
O1519       O  0.70048414  0.26364274  0.08865024    -0.39480
O1520       O  0.68585399  0.26470213  0.15328480    -0.39540
C1521       C  0.60594241  0.36193402  0.11894048    -0.11820
C1522       C  0.58398512  0.33663435  0.09279136     0.05180
C1523       C  0.55013126  0.32381388  0.09965580    -0.07110
C1524       C  0.53951544  0.33801041  0.12986247    -0.07860
C1525       C  0.56131582  0.36384312  0.15563193    -0.02410
C1526       C  0.59524891  0.37527059  0.15053337     0.04410
N1527       N  0.61944411  0.39987574  0.17703088     0.66920
H1528       H  0.63191699  0.37152491  0.11500896     0.15810
H1529       H  0.51352924  0.32875879  0.13248007     0.15530
N1530       N  0.52590440  0.29631201  0.07674614     0.74620
O1531       O  0.61771407  0.39657533  0.21641659    -0.38830
O1532       O  0.64471353  0.42290162  0.16100916    -0.38770
O1533       O  0.52557694  0.26968422  0.07887207    -0.39480
O1534       O  0.50109585  0.29660780  0.06259016    -0.39540
C1535       C  0.54505813  0.35806867  0.39371106    -0.11820
C1536       C  0.55600640  0.36297289  0.35200096     0.05180
C1537       C  0.57740871  0.35192166  0.33852128    -0.07110
C1538       C  0.58868900  0.33784480  0.36821541    -0.07860
C1539       C  0.57777548  0.33327466  0.40996938    -0.02410
C1540       C  0.55513028  0.34277502  0.42258956     0.04410
N1541       N  0.54130534  0.33602127  0.46405263     0.66920
H1542       H  0.52783125  0.36560178  0.40359630     0.15810
H1543       H  0.60566294  0.32990687  0.35871442     0.15530
N1544       N  0.58673840  0.35347743  0.29512419     0.74620
O1545       O  0.53437636  0.35554028  0.48210498    -0.38830
O1546       O  0.53095914  0.30829344  0.47952030    -0.38770
O1547       O  0.56740234  0.35115244  0.26623015    -0.39480
O1548       O  0.61218076  0.35249921  0.28545480    -0.39540
C1549       C  0.70803751  0.06815910  0.12409663    -0.11820
C1550       C  0.70420988  0.08130876  0.08644506     0.05180
C1551       C  0.67516632  0.08239878  0.07987106    -0.07110
C1552       C  0.65133073  0.07122912  0.11122005    -0.07860
C1553       C  0.65497583  0.05808593  0.14883339    -0.02410
C1554       C  0.68394427  0.05682530  0.15568430     0.04410
N1555       N  0.68997895  0.04561002  0.19476968     0.66920
H1556       H  0.73048715  0.06778477  0.12956633     0.15810
H1557       H  0.62880591  0.07135992  0.10520469     0.15530
N1558       N  0.66850438  0.09295410  0.04074394     0.74620
O1559       O  0.70785568  0.03281821  0.19555652    -0.38830
O1560       O  0.68052860  0.05160399  0.22912594    -0.38770
O1561       O  0.67182175  0.08140634  0.00644049    -0.39480
O1562       O  0.65422896  0.10943172  0.04069534    -0.39540
C1563       C  0.82171019  0.21444205  0.12755807    -0.11820
C1564       C  0.83777342  0.21795076  0.08905795     0.05180
C1565       C  0.86816116  0.24624630  0.08213055    -0.07110
C1566       C  0.88194263  0.26959296  0.11392878    -0.07860
C1567       C  0.86574768  0.26646279  0.15199570    -0.02410
C1568       C  0.83534711  0.23830788  0.15931082     0.04410
N1569       N  0.81858479  0.23315445  0.19883616     0.66920
H1570       H  0.79880453  0.19256895  0.13334190     0.15810
H1571       H  0.90464806  0.29161562  0.10769316     0.15530
N1572       N  0.88439238  0.25283628  0.04214468     0.74620
O1573       O  0.78805084  0.21511249  0.20065993    -0.38830
O1574       O  0.83441913  0.24394725  0.23262842    -0.38770
O1575       O  0.86900001  0.25118732  0.00896080    -0.39480
O1576       O  0.91502682  0.26564056  0.04064219    -0.39540
C1577       C  0.88023977  0.24793491  0.35477889    -0.11820
C1578       C  0.86312157  0.26479995  0.34729534     0.05180
C1579       C  0.83362705  0.25470642  0.36996452    -0.07110
C1580       C  0.82266676  0.22913652  0.39842674    -0.07860
C1581       C  0.84110610  0.21426253  0.40800553    -0.02410
C1582       C  0.87054357  0.22413918  0.38601019     0.04410
N1583       N  0.89227923  0.21241080  0.39705827     0.66920
H1584       H  0.90234600  0.25399032  0.33800525     0.15810
H1585       H  0.80005814  0.22205344  0.41497372     0.15530
N1586       N  0.81534787  0.27129529  0.36733427     0.74620
O1587       O  0.90616692  0.20512671  0.36851680    -0.38830
O1588       O  0.90270163  0.21576384  0.43432802    -0.38770
O1589       O  0.78536291  0.25564140  0.35848401    -0.39480
O1590       O  0.82734277  0.29972238  0.38164757    -0.39540
C1591       C  0.67689570  0.05053872  0.35162020    -0.11820
C1592       C  0.65533956  0.06289157  0.34940585     0.05180
C1593       C  0.66190302  0.09006110  0.37515215    -0.07110
C1594       C  0.68945561  0.10394384  0.40130542    -0.07860
C1595       C  0.70958068  0.09026380  0.40500302    -0.02410
C1596       C  0.70328418  0.06333541  0.37963663     0.04410
N1597       N  0.72377452  0.04903972  0.38124794     0.66920
H1598       H  0.67366918  0.03088265  0.33131772     0.15810
H1599       H  0.69363398  0.12404666  0.42155491     0.15530
N1600       N  0.63975388  0.10244353  0.37797784     0.74620
O1601       O  0.71128785  0.01866382  0.38055831    -0.38830
O1602       O  0.75415658  0.06653152  0.37675345    -0.38770
O1603       O  0.61041786  0.08390439  0.38814223    -0.39480
O1604       O  0.65058606  0.13258344  0.37733701    -0.39540
C1605       C  0.56039046  0.18467582  0.15905724    -0.11820
C1606       C  0.55349251  0.15379063  0.14556960     0.05180
C1607       C  0.55892363  0.14869411  0.10321032    -0.07110
C1608       C  0.57194596  0.17484508  0.07560224    -0.07860
C1609       C  0.57896176  0.20579856  0.08873408    -0.02410
C1610       C  0.57352666  0.21105575  0.13117101     0.04410
N1611       N  0.58256663  0.24286218  0.14688615     0.66920
H1612       H  0.55645481  0.18835629  0.19171814     0.15810
H1613       H  0.57564476  0.17075585  0.04298462     0.15530
N1614       N  0.55053142  0.11706724  0.08736650     0.74620
O1615       O  0.56779767  0.24611954  0.17803164    -0.38830
O1616       O  0.60781501  0.26739509  0.13339991    -0.38770
O1617       O  0.52470850  0.09236752  0.09917006    -0.39480
O1618       O  0.56671450  0.11420197  0.05765733    -0.39540
C1619       C  0.58235553  0.18352508  0.33751035    -0.11820
C1620       C  0.55483316  0.15421058  0.34851658     0.05180
C1621       C  0.54030320  0.15114329  0.38832309    -0.07110
C1622       C  0.55402713  0.17719464  0.41641625    -0.07860
C1623       C  0.58206107  0.20635919  0.40617269    -0.02410
C1624       C  0.59580261  0.21013477  0.36543985     0.04410
N1625       N  0.62179355  0.24078946  0.35098337     0.66920
H1626       H  0.59268586  0.18588623  0.30642435     0.15810
H1627       H  0.54334107  0.17409222  0.44742106     0.15530
N1628       N  0.51248658  0.12139082  0.40154913     0.74620
O1629       O  0.63893641  0.24175207  0.31991630    -0.38830
O1630       O  0.62397291  0.26691486  0.36393595    -0.38770
O1631       O  0.51166998  0.09473657  0.39577932    -0.39480
O1632       O  0.49057989  0.12205218  0.42363829    -0.39540
C1633       C  0.86020544  0.10698202  0.12273380    -0.11820
C1634       C  0.83510857  0.08619219  0.09535517     0.05180
C1635       C  0.82114434  0.05239318  0.10064983    -0.07110
C1636       C  0.83462282  0.04050013  0.12966291    -0.07860
C1637       C  0.86064553  0.06110729  0.15599444    -0.02410
C1638       C  0.87259427  0.09498371  0.15372520     0.04410
N1639       N  0.89650286  0.11752621  0.18272740     0.66920
H1640       H  0.87024066  0.13288177  0.12016919     0.15810
H1641       H  0.82477511  0.01456870  0.13083401     0.15530
N1642       N  0.79322429  0.02957432  0.07704501     0.74620
O1643       O  0.91706564  0.14563022  0.17080581    -0.38830
O1644       O  0.89505375  0.11072841  0.22123968    -0.38770
O1645       O  0.79355559  0.00619157  0.05856706    -0.39480
O1646       O  0.76652727  0.02936087  0.08110627    -0.39540
C1647       C  0.86299876  0.04998334  0.39373469    -0.11820
C1648       C  0.86237111  0.05687882  0.35112548     0.05180
C1649       C  0.84874168  0.07609119  0.33865365    -0.07110
C1650       C  0.83693682  0.08873882  0.36985423    -0.07860
C1651       C  0.83816472  0.08224021  0.41258809    -0.02410
C1652       C  0.85118926  0.06245175  0.42472998     0.04410
N1653       N  0.85161155  0.05375089  0.46786905     0.66920
H1654       H  0.87318040  0.03492955  0.40300593     0.15810
H1655       H  0.82629942  0.10342633  0.36083228     0.15530
N1656       N  0.84585145  0.08222445  0.29504628     0.74620
O1657       O  0.84546704  0.02546032  0.47670407    -0.38830
O1658       O  0.86290748  0.07519037  0.49623391    -0.38770
O1659       O  0.84121242  0.06132201  0.26725121    -0.39480
O1660       O  0.84422937  0.10695330  0.28468526    -0.39540
C1661       C  0.86118631  0.34584301  0.74748018     0.01010
C1662       C  0.84717678  0.36454443  0.74834524     0.01010
C1663       C  0.97782704  0.36479935  0.75316937     0.01010
C1664       C  0.94496542  0.34855792  0.75215264     0.01010
C1665       C  0.97505063  0.07503870  0.74750257     0.01010
C1666       C  0.94234951  0.05773576  0.74734121     0.01010
C1667       C  0.87621268  0.04302285  0.82156291     0.03570
C1668       C  0.90819938  0.06146256  0.80573052    -0.12580
C1669       C  0.92322565  0.04522802  0.78722702     0.01070
C1670       C  0.90783062  0.01169207  0.79299150    -0.11100
C1671       C  0.87372473  0.99536549  0.79059939     0.03560
C1672       C  0.85794030  0.01015260  0.81030425    -0.10520
H1673       H  0.92040261  0.08763199  0.80615494     0.09160
H1674       H  0.92025633  0.99915969  0.78173965     0.06690
H1675       H  0.83169477  0.99714313  0.81402397     0.06540
C1676       C  0.87613364  0.04597181  0.68129632     0.03570
C1677       C  0.85694293  0.01440890  0.69779572    -0.12580
C1678       C  0.87199161  0.99703817  0.71166219     0.01070
C1679       C  0.90546228  0.01071317  0.70402012    -0.11100
C1680       C  0.92368114  0.04446579  0.70714546     0.03560
C1681       C  0.91013008  0.06161581  0.68847373    -0.10520
H1682       H  0.83087698  0.00414496  0.70164295     0.09160
H1683       H  0.91716067  0.99708047  0.71329311     0.06690
H1684       H  0.92593239  0.08692158  0.68186360     0.06540
C1685       C  0.84375336  0.44470160  0.74955343     0.01010
C1686       C  0.85958581  0.47718327  0.75058854     0.01010
C1687       C  0.54144913  0.12659534  0.81892503     0.03570
C1688       C  0.56080386  0.11374746  0.80375477    -0.12580
C1689       C  0.54530573  0.08280272  0.78537412     0.01070
C1690       C  0.51146698  0.06418537  0.79079655    -0.11100
C1691       C  0.49430445  0.08107801  0.78713575     0.03560
C1692       C  0.50861639  0.11186582  0.80578229    -0.10740
H1693       H  0.58715483  0.12781265  0.80494566     0.09160
H1694       H  0.49950870  0.03925070  0.78029332     0.06690
H1695       H  0.49512048  0.12472610  0.80829145     0.06540
C1696       C  0.54078969  0.12668455  0.67536520     0.03570
C1697       C  0.56000804  0.11295964  0.68758330    -0.12580
C1698       C  0.54471780  0.08212546  0.70585194     0.01070
C1699       C  0.51070388  0.06409053  0.70202151    -0.11100
C1700       C  0.49421035  0.08154525  0.70773103     0.03560
C1701       C  0.50850718  0.11254245  0.69012126    -0.10520
H1702       H  0.58630024  0.12664540  0.68483023     0.09160
H1703       H  0.49865145  0.03915760  0.71214643     0.06690
H1704       H  0.49531095  0.12575230  0.68925809     0.06540
C1705       C  0.55852021  0.07686015  0.74550924     0.01010
C1706       C  0.57426274  0.05981739  0.74574074     0.01010
C1707       C  0.62565806  0.04648510  0.82192734     0.03570
C1708       C  0.61260919  0.06429099  0.80264726    -0.12580
C1709       C  0.58105168  0.04792935  0.78575260     0.01070
C1710       C  0.56262956  0.01460651  0.79312091    -0.11100
C1711       C  0.58005345  0.99789418  0.79151833     0.03560
C1712       C  0.61053879  0.01298316  0.81166074    -0.10520
H1713       H  0.62732451  0.09022257  0.79889449     0.09160
H1714       H  0.53753821  0.00203208  0.78260537     0.06690
H1715       H  0.62250613  0.99898350  0.81684660     0.06540
C1716       C  0.87787153  0.29449113  0.81980964     0.03570
C1717       C  0.85863241  0.30627487  0.80093447    -0.12580
C1718       C  0.87347339  0.33834435  0.78663278     0.01070
C1719       C  0.90682685  0.35798426  0.79463742    -0.11100
C1720       C  0.92523911  0.34239135  0.79163303     0.03560
C1721       C  0.91171997  0.31175243  0.81013056    -0.10520
H1722       H  0.83295449  0.29035066  0.79497009     0.09160
H1723       H  0.91828606  0.38304780  0.78510188     0.06690
H1724       H  0.92732276  0.30141457  0.81388648     0.06540
O1725       O  0.73628077  0.08176780  0.96232083    -0.84910
O1726       O  0.79461772  0.08508114  0.94510073    -0.81950
C1727       C  0.82477635  0.09540325  0.94371150     0.98560
O1728       O  0.84365290  0.11642337  0.96969315    -0.81990
O1729       O  0.84021193  0.17044023  0.94621987    -0.84630
C1730       C  0.82900130  0.18944181  0.94174346     1.03080
O1731       O  0.80748550  0.18810799  0.96684622    -0.77390
O1732       O  0.75177280  0.13201835  0.94564339    -0.77580
C1733       C  0.73429328  0.10206343  0.93888257     1.03030
O1734       O  0.74929506  0.08275709  0.55083355    -0.84900
O1735       O  0.80525030  0.08112640  0.53301488    -0.81970
C1736       C  0.82514911  0.09995603  0.56026860     0.98580
O1737       O  0.83771764  0.13018806  0.55613571    -0.81990
O1738       O  0.84295679  0.18820221  0.53264698    -0.84600
C1739       C  0.82385936  0.19134443  0.55750296     1.03050
O1740       O  0.79352625  0.17246105  0.55460614    -0.77420
O1741       O  0.73512162  0.11842386  0.53270188    -0.77570
C1742       C  0.73108033  0.09492523  0.55526052     1.03010
Cr1743     Cr  0.77302758  0.08605446  0.99796607     1.93740
Cr1744     Cr  0.83775491  0.14966522  0.00107608     1.93210
Cr1745     Cr  0.77359497  0.15098498  0.00004604     1.39100
O1746       O  0.79460487  0.12882956  0.99969458    -1.22650
C1747       C  0.87922573  0.29548384  0.67948299     0.03570
C1748       C  0.86026226  0.30987679  0.68999187    -0.12580
C1749       C  0.87542000  0.34086900  0.70798856     0.01070
C1750       C  0.90957780  0.35886456  0.70542404    -0.11100
C1751       C  0.92611489  0.34154700  0.71175506     0.03560
C1752       C  0.91173370  0.31024706  0.69426680    -0.10520
H1753       H  0.83400381  0.29654260  0.68656463     0.09160
H1754       H  0.92138127  0.38375020  0.71617141     0.06690
H1755       H  0.92471966  0.29682310  0.69450923     0.06540
C1756       C  0.62644605  0.04369923  0.67752592     0.03570
C1757       C  0.61088196  0.06154318  0.68842055    -0.12580
C1758       C  0.57981802  0.04565468  0.70662115     0.01070
C1759       C  0.56305485  0.01180147  0.70444481    -0.11100
C1760       C  0.58196725  0.99705808  0.71154261     0.03560
C1761       C  0.61317984  0.01190525  0.69332603    -0.10520
H1762       H  0.62366113  0.08761179  0.68524549     0.09160
H1763       H  0.53791026  0.99915172  0.71466957     0.06690
H1764       H  0.62707767  0.99941548  0.69289470     0.06540
C1765       C  0.54309707  0.37869397  0.82413246     0.03570
C1766       C  0.51002386  0.36164833  0.81249584    -0.12580
C1767       C  0.49608421  0.37827839  0.79338365     0.01070
C1768       C  0.51341645  0.41213065  0.79672819    -0.11100
C1769       C  0.54731034  0.42676977  0.79151050     0.03560
C1770       C  0.56263981  0.41061655  0.80925088    -0.10520
H1771       H  0.49627510  0.33554929  0.81512343     0.09160
H1772       H  0.50151564  0.42518744  0.78584127     0.06690
H1773       H  0.58896147  0.42192712  0.80970602     0.06540
C1774       C  0.54714568  0.37957673  0.68322286     0.03570
C1775       C  0.51493694  0.36120643  0.69937992    -0.12580
C1776       C  0.49829841  0.37695622  0.71428293     0.01070
C1777       C  0.51339919  0.41036076  0.70776501    -0.11100
C1778       C  0.54739513  0.42723136  0.71178500     0.03560
C1779       C  0.56414179  0.41302778  0.69313092    -0.10520
H1780       H  0.50355780  0.33518010  0.70211445     0.09160
H1781       H  0.50032362  0.42266593  0.71729230     0.06690
H1782       H  0.58989580  0.42818022  0.68792471     0.06540
O1783       O  0.66736974  0.28943042  0.55310384    -0.84910
O1784       O  0.61240501  0.23250163  0.53069950    -0.81950
C1785       C  0.59158829  0.23139250  0.55663937     0.98560
O1786       O  0.58037171  0.25041858  0.55323515    -0.81990
O1787       O  0.57760117  0.30488382  0.53153517    -0.84630
C1788       C  0.59696441  0.32521234  0.55786040     1.03080
O1789       O  0.62727402  0.33670921  0.55326811    -0.77390
O1790       O  0.68466147  0.33875830  0.53149760    -0.77580
C1791       C  0.68657180  0.31942366  0.55693887     1.03030
O1792       O  0.68445902  0.30255222  0.96599189    -0.84900
O1793       O  0.62638739  0.24916172  0.94370496    -0.81970
C1794       C  0.59596803  0.23141054  0.93952917     0.98580
O1795       O  0.57675112  0.23326704  0.96569940    -0.81990
O1796       O  0.58010895  0.29054765  0.94442063    -0.84600
C1797       C  0.59164517  0.32060948  0.94088331     1.03050
O1798       O  0.61366771  0.34015873  0.96558942    -0.77420
O1799       O  0.66853892  0.33611381  0.94446032    -0.77570
C1800       C  0.68686858  0.32391279  0.94068842     1.03010
Cr1801     Cr  0.64606452  0.27007164  0.99838910     1.93740
Cr1802     Cr  0.58195256  0.27131646  0.99872685     1.93210
Cr1803     Cr  0.64684591  0.33476964  0.99863583     1.39100
O1804       O  0.62497714  0.29208107  0.99837883    -1.22650
C1805       C  0.79578125  0.37822744  0.82341130     0.03570
C1806       C  0.81167202  0.36094657  0.80978739    -0.12580
C1807       C  0.84186638  0.37768028  0.78905272     0.01070
C1808       C  0.85822448  0.41135238  0.79312815    -0.11100
C1809       C  0.83860130  0.42553399  0.78844800     0.03560
C1810       C  0.80731058  0.40919311  0.80580436    -0.10520
H1811       H  0.80060485  0.33505443  0.81271713     0.09160
H1812       H  0.88317954  0.42470662  0.78228940     0.06690
H1813       H  0.79161475  0.41969461  0.80355599     0.06540
C1814       C  0.79403879  0.37757598  0.67683159     0.03570
C1815       C  0.80628156  0.40922804  0.69323374    -0.12580
C1816       C  0.83799392  0.42584370  0.70975387     0.01070
C1817       C  0.85729479  0.41128320  0.70430500    -0.11100
C1818       C  0.84093006  0.37759284  0.70858551     0.03560
C1819       C  0.81016581  0.36055384  0.68937293    -0.10520
H1820       H  0.79091071  0.42014839  0.69479729     0.09160
H1821       H  0.88248586  0.42468139  0.71430502     0.06690
H1822       H  0.79874304  0.33456688  0.68636137     0.06540
C1823       C  0.57573775  0.47865004  0.75193714     0.01010
C1824       C  0.56055804  0.44605407  0.75192163     0.01010
C1825       C  0.74750163  0.33040889  0.85664195    -0.11820
C1826       C  0.76688517  0.36416824  0.85244380     0.05180
C1827       C  0.75920068  0.38414638  0.87810806    -0.07110
C1828       C  0.73155239  0.37007682  0.90388558    -0.07860
C1829       C  0.71329035  0.33657851  0.90907777    -0.02410
C1830       C  0.72217859  0.31652843  0.88616114     0.04410
N1831       N  0.70650919  0.28223863  0.89271771     0.66920
H1832       H  0.75240427  0.31425009  0.83808165     0.15810
H1833       H  0.72591186  0.38564657  0.92290440     0.15530
N1834       N  0.78051619  0.41845138  0.88162855     0.74620
O1835       O  0.69841876  0.26355546  0.86125683    -0.38830
O1836       O  0.70959723  0.27174235  0.92775694    -0.38770
O1837       O  0.76882417  0.43723588  0.88189145    -0.39480
O1838       O  0.80997188  0.42941823  0.89184592    -0.39540
C1839       C  0.73339492  0.36667725  0.59062674    -0.11820
C1840       C  0.71254462  0.33299786  0.58982589     0.05180
C1841       C  0.71764624  0.31399997  0.61970396    -0.07110
C1842       C  0.74295168  0.32912207  0.64937245    -0.07860
C1843       C  0.76485680  0.36269356  0.64855221    -0.02410
C1844       C  0.75977964  0.38150656  0.61828467     0.04410
N1845       N  0.78228646  0.41535116  0.61287477     0.66920
H1846       H  0.73036211  0.38184713  0.56791299     0.15810
H1847       H  0.74591929  0.31413012  0.67235781     0.15530
N1848       N  0.69853461  0.27940379  0.61951870     0.74620
O1849       O  0.81179459  0.42478564  0.60459081    -0.38830
O1850       O  0.77176833  0.43498055  0.60937352    -0.38770
O1851       O  0.70048414  0.26364274  0.58865017    -0.39480
O1852       O  0.68585397  0.26470211  0.65328474    -0.39540
C1853       C  0.60594242  0.36193400  0.61894045    -0.11820
C1854       C  0.58398512  0.33663435  0.59279132     0.05180
C1855       C  0.55013126  0.32381389  0.59965576    -0.07110
C1856       C  0.53951545  0.33801041  0.62986245    -0.07860
C1857       C  0.56131584  0.36384311  0.65563193    -0.02410
C1858       C  0.59524893  0.37527057  0.65053336     0.04410
N1859       N  0.61944414  0.39987571  0.67703087     0.66920
H1860       H  0.63191699  0.37152489  0.61500894     0.15810
H1861       H  0.51352925  0.32875880  0.63248006     0.15530
N1862       N  0.52590439  0.29631203  0.57674609     0.74620
O1863       O  0.61771412  0.39657527  0.71641657    -0.38830
O1864       O  0.64471354  0.42290161  0.66100915    -0.38770
O1865       O  0.52557692  0.26968423  0.57887201    -0.39480
O1866       O  0.50109586  0.29660785  0.56259012    -0.39540
C1867       C  0.54505816  0.35806869  0.89371109    -0.11820
C1868       C  0.55600643  0.36297289  0.85200099     0.05180
C1869       C  0.57740874  0.35192166  0.83852132    -0.07110
C1870       C  0.58868902  0.33784480  0.86821545    -0.07860
C1871       C  0.57777551  0.33327467  0.90996942    -0.02410
C1872       C  0.55513031  0.34277504  0.92258960     0.04410
N1873       N  0.54130538  0.33602130  0.96405267     0.66920
H1874       H  0.52783129  0.36560181  0.90359632     0.15810
H1875       H  0.60566295  0.32990686  0.85871447     0.15530
N1876       N  0.58673843  0.35347742  0.79512423     0.74620
O1877       O  0.53437640  0.35554031  0.98210501    -0.38830
O1878       O  0.53095916  0.30829347  0.97952035    -0.38770
O1879       O  0.56740238  0.35115245  0.76623018    -0.39480
O1880       O  0.61218078  0.35249919  0.78545484    -0.39540
C1881       C  0.70803751  0.06815911  0.62409663    -0.11820
C1882       C  0.70420988  0.08130875  0.58644506     0.05180
C1883       C  0.67516631  0.08239877  0.57987105    -0.07110
C1884       C  0.65133072  0.07122912  0.61122004    -0.07860
C1885       C  0.65497583  0.05808594  0.64883339    -0.02410
C1886       C  0.68394427  0.05682531  0.65568430     0.04410
N1887       N  0.68997895  0.04561004  0.69476969     0.66920
H1888       H  0.73048715  0.06778478  0.62956634     0.15810
H1889       H  0.62880590  0.07135991  0.60520468     0.15530
N1890       N  0.66850437  0.09295408  0.54074392     0.74620
O1891       O  0.70785569  0.03281823  0.69555654    -0.38830
O1892       O  0.68052860  0.05160402  0.72912594    -0.38770
O1893       O  0.67182174  0.08140632  0.50644048    -0.39480
O1894       O  0.65422895  0.10943169  0.54069532    -0.39540
C1895       C  0.82171018  0.21444204  0.62755806    -0.11820
C1896       C  0.83777341  0.21795075  0.58905794     0.05180
C1897       C  0.86816114  0.24624630  0.58213054    -0.07110
C1898       C  0.88194261  0.26959295  0.61392876    -0.07860
C1899       C  0.86574766  0.26646278  0.65199569    -0.02410
C1900       C  0.83534709  0.23830787  0.65931081     0.04410
N1901       N  0.81858478  0.23315444  0.69883615     0.66920
H1902       H  0.79880452  0.19256893  0.63334189     0.15810
H1903       H  0.90464803  0.29161562  0.60769314     0.15530
N1904       N  0.88439236  0.25283627  0.54214467     0.74620
O1905       O  0.78805083  0.21511248  0.70065992    -0.38830
O1906       O  0.83441912  0.24394725  0.73262841    -0.38770
O1907       O  0.86899999  0.25118730  0.50896078    -0.39480
O1908       O  0.91502680  0.26564056  0.54064217    -0.39540
C1909       C  0.88023975  0.24793491  0.85477887    -0.11820
C1910       C  0.86312156  0.26479996  0.84729533     0.05180
C1911       C  0.83362704  0.25470644  0.86996454    -0.07110
C1912       C  0.82266676  0.22913655  0.89842676    -0.07860
C1913       C  0.84110609  0.21426254  0.90800553    -0.02410
C1914       C  0.87054355  0.22413919  0.88601017     0.04410
N1915       N  0.89227922  0.21241080  0.89705824     0.66920
H1916       H  0.90234597  0.25399032  0.83800521     0.15810
H1917       H  0.80005814  0.22205347  0.91497375     0.15530
N1918       N  0.81534788  0.27129532  0.86733430     0.74620
O1919       O  0.90616688  0.20512670  0.86851675    -0.38830
O1920       O  0.90270163  0.21576385  0.93432797    -0.38770
O1921       O  0.78536290  0.25564144  0.85848407    -0.39480
O1922       O  0.82734279  0.29972242  0.88164758    -0.39540
C1923       C  0.67689571  0.05053874  0.85162021    -0.11820
C1924       C  0.65533956  0.06289158  0.84940587     0.05180
C1925       C  0.66190302  0.09006111  0.87515216    -0.07110
C1926       C  0.68945562  0.10394385  0.90130544    -0.07860
C1927       C  0.70958068  0.09026382  0.90500303    -0.02410
C1928       C  0.70328419  0.06333543  0.87963663     0.04410
N1929       N  0.72377454  0.04903975  0.88124794     0.66920
H1930       H  0.67366919  0.03088267  0.83131772     0.15810
H1931       H  0.69363398  0.12404667  0.92155493     0.15530
N1932       N  0.63975387  0.10244353  0.87797786     0.74620
O1933       O  0.71128787  0.01866384  0.88055829    -0.38830
O1934       O  0.75415660  0.06653156  0.87675344    -0.38770
O1935       O  0.61041786  0.08390439  0.88814224    -0.39480
O1936       O  0.65058605  0.13258345  0.87733704    -0.39540
C1937       C  0.56039046  0.18467583  0.65905722    -0.11820
C1938       C  0.55349253  0.15379065  0.64556960     0.05180
C1939       C  0.55892366  0.14869413  0.60321032    -0.07110
C1940       C  0.57194598  0.17484509  0.57560223    -0.07860
C1941       C  0.57896176  0.20579856  0.58873405    -0.02410
C1942       C  0.57352664  0.21105576  0.63117097     0.04410
N1943       N  0.58256660  0.24286219  0.64688610     0.66920
H1944       H  0.55645480  0.18835631  0.69171811     0.15810
H1945       H  0.57564479  0.17075586  0.54298462     0.15530
N1946       N  0.55053147  0.11706726  0.58736652     0.74620
O1947       O  0.56779761  0.24611954  0.67803157    -0.38830
O1948       O  0.60781497  0.26739511  0.63339987    -0.38770
O1949       O  0.52470855  0.09236753  0.59917007    -0.39480
O1950       O  0.56671456  0.11420199  0.55765736    -0.39540
C1951       C  0.58235556  0.18352510  0.83751038    -0.11820
C1952       C  0.55483319  0.15421060  0.84851660     0.05180
C1953       C  0.54030322  0.15114330  0.88832311    -0.07110
C1954       C  0.55402715  0.17719465  0.91641627    -0.07860
C1955       C  0.58206109  0.20635920  0.90617273    -0.02410
C1956       C  0.59580264  0.21013479  0.86543989     0.04410
N1957       N  0.62179359  0.24078948  0.85098342     0.66920
H1958       H  0.59268589  0.18588625  0.80642438     0.15810
H1959       H  0.54334108  0.17409223  0.94742109     0.15530
N1960       N  0.51248660  0.12139084  0.90154914     0.74620
O1961       O  0.63893645  0.24175208  0.81991636    -0.38830
O1962       O  0.62397295  0.26691488  0.86393600    -0.38770
O1963       O  0.51166999  0.09473659  0.89577932    -0.39480
O1964       O  0.49057990  0.12205220  0.92363829    -0.39540
C1965       C  0.86020541  0.10698200  0.62273381    -0.11820
C1966       C  0.83510856  0.08619217  0.59535518     0.05180
C1967       C  0.82114433  0.05239317  0.60064982    -0.07110
C1968       C  0.83462281  0.04050011  0.62966290    -0.07860
C1969       C  0.86064551  0.06110728  0.65599445    -0.02410
C1970       C  0.87259424  0.09498369  0.65372521     0.04410
N1971       N  0.89650283  0.11752619  0.68272742     0.66920
H1972       H  0.87024063  0.13288176  0.62016921     0.15810
H1973       H  0.82477510  0.01456868  0.63083400     0.15530
N1974       N  0.79322430  0.02957430  0.57704498     0.74620
O1975       O  0.91706561  0.14563021  0.67080584    -0.38830
O1976       O  0.89505373  0.11072838  0.72123969    -0.38770
O1977       O  0.79355561  0.00619156  0.55856703    -0.39480
O1978       O  0.76652727  0.02936084  0.58110624    -0.39540
C1979       C  0.86299875  0.04998334  0.89373469    -0.11820
C1980       C  0.86237110  0.05687881  0.85112548     0.05180
C1981       C  0.84874167  0.07609118  0.83865364    -0.07110
C1982       C  0.83693682  0.08873882  0.86985423    -0.07860
C1983       C  0.83816473  0.08224022  0.91258809    -0.02410
C1984       C  0.85118926  0.06245176  0.92472998     0.04410
N1985       N  0.85161156  0.05375090  0.96786905     0.66920
H1986       H  0.87318040  0.03492955  0.90300593     0.15810
H1987       H  0.82629942  0.10342633  0.86083227     0.15530
N1988       N  0.84585143  0.08222443  0.79504628     0.74620
O1989       O  0.84546704  0.02546034  0.97670408    -0.38830
O1990       O  0.86290749  0.07519039  0.99623391    -0.38770
O1991       O  0.84121239  0.06132199  0.76725121    -0.39480
O1992       O  0.84422935  0.10695328  0.78468525    -0.39540
C1993       C  0.86120314  0.84584657  0.24747707     0.01010
C1994       C  0.84718990  0.86454446  0.24834275     0.01010
C1995       C  0.97783455  0.86479805  0.25316533     0.01010
C1996       C  0.94497255  0.84854115  0.25214816     0.01010
C1997       C  0.97501576  0.57506124  0.24750350     0.01010
C1998       C  0.94231483  0.55774963  0.24734066     0.01010
C1999       C  0.87616952  0.54301665  0.32156065     0.03570
C2000       C  0.90815539  0.56146435  0.30572806    -0.12580
C2001       C  0.92319040  0.54523769  0.28722563     0.01070
C2002       C  0.90780422  0.51170223  0.29299042    -0.11100
C2003       C  0.87369822  0.49536684  0.29059723     0.03560
C2004       C  0.85790570  0.51014582  0.31030171    -0.10520
H2005       H  0.92035159  0.58763347  0.30615250     0.09160
H2006       H  0.92023660  0.49917613  0.28173975     0.06690
H2007       H  0.83166018  0.49712942  0.31402115     0.06540
C2008       C  0.87609513  0.54596699  0.18129246     0.03570
C2009       C  0.85691030  0.51440288  0.19779151    -0.12580
C2010       C  0.87196593  0.49703881  0.21165965     0.01070
C2011       C  0.90543768  0.51072169  0.20401930    -0.11100
C2012       C  0.92364916  0.54447478  0.20714402     0.03560
C2013       C  0.91009185  0.56161789  0.18846972    -0.10520
H2014       H  0.83084357  0.50413315  0.20163780     0.09160
H2015       H  0.91714169  0.49709456  0.21329359     0.06690
H2016       H  0.92588983  0.58692413  0.18185807     0.06540
C2017       C  0.84376802  0.94470181  0.24955507     0.01010
C2018       C  0.85960806  0.97718349  0.25059093     0.01010
C2019       C  0.54142299  0.62660502  0.31892434     0.03570
C2020       C  0.56076811  0.61374538  0.30375768    -0.12580
C2021       C  0.54526035  0.58280048  0.28537808     0.01070
C2022       C  0.51142059  0.56419361  0.29079939    -0.11100
C2023       C  0.49426881  0.58109694  0.28713662     0.03560
C2024       C  0.50859110  0.61188622  0.30578045    -0.10740
H2025       H  0.58711954  0.62780214  0.30495013     0.09160
H2026       H  0.49945453  0.53925867  0.28029640     0.06690
H2027       H  0.49510354  0.62475498  0.30828803     0.06540
C2028       C  0.54076621  0.62669488  0.17536971     0.03570
C2029       C  0.55997444  0.61295871  0.18758784    -0.12580
C2030       C  0.54467410  0.58212417  0.20585558     0.01070
C2031       C  0.51065976  0.56409964  0.20202375    -0.11100
C2032       C  0.49417667  0.58156458  0.20773335     0.03560
C2033       C  0.50848424  0.61256313  0.19012571    -0.10520
H2034       H  0.58626701  0.62663638  0.18483548     0.09160
H2035       H  0.49859927  0.53916640  0.21214818     0.06690
H2036       H  0.49529620  0.62578108  0.18926287     0.06540
C2037       C  0.55847062  0.57685209  0.24551371     0.01010
C2038       C  0.57420896  0.55980535  0.24574601     0.01010
C2039       C  0.62560760  0.54648064  0.32193499     0.03570
C2040       C  0.61255372  0.56428343  0.30265838    -0.12580
C2041       C  0.58099786  0.54791754  0.28575846     0.01070
C2042       C  0.56258116  0.51459374  0.29312245    -0.11100
C2043       C  0.58001103  0.49788746  0.29151909     0.03560
C2044       C  0.61049474  0.51297989  0.31166498    -0.10520
H2045       H  0.62726443  0.59021608  0.29891212     0.09160
H2046       H  0.53749015  0.50201557  0.28260597     0.06690
H2047       H  0.62246665  0.49898439  0.31685036     0.06540
C2048       C  0.87786897  0.79448147  0.31980502     0.03570
C2049       C  0.85863728  0.80627406  0.30093085    -0.12580
C2050       C  0.87348645  0.83834385  0.28662968     0.01070
C2051       C  0.90684090  0.85797596  0.29463429    -0.11100
C2052       C  0.92524498  0.84237456  0.29162749     0.03560
C2053       C  0.91171738  0.81173337  0.31012145    -0.10520
H2054       H  0.83295889  0.79035562  0.29496335     0.09160
H2055       H  0.91830622  0.88304006  0.28509957     0.06690
H2056       H  0.92731264  0.80138777  0.31387010     0.06540
O2057       O  0.73623096  0.58176403  0.46231978    -0.84910
O2058       O  0.79456197  0.58506324  0.44510375    -0.81950
C2059       C  0.82471986  0.59538134  0.44371408     0.98560
O2060       O  0.84359836  0.61640064  0.46969491    -0.81990
O2061       O  0.84016756  0.67042155  0.44621571    -0.84630
C2062       C  0.82896404  0.68942891  0.44173861     1.03080
O2063       O  0.80744952  0.68810041  0.46683971    -0.77390
O2064       O  0.75172755  0.63201637  0.44564463    -0.77580
C2065       C  0.73424532  0.60206181  0.43888361     1.03030
O2066       O  0.74924245  0.58275296  0.05083347    -0.84900
O2067       O  0.80519169  0.58111078  0.03302119    -0.81970
C2068       C  0.82509568  0.59994086  0.06027047     0.98580
O2069       O  0.83766783  0.63017294  0.05613445    -0.81990
O2070       O  0.84291902  0.68819063  0.03263979    -0.84600
C2071       C  0.82382606  0.69133822  0.05749769     1.03050
O2072       O  0.79349187  0.67245954  0.05460322    -0.77420
O2073       O  0.73507983  0.61842830  0.03270438    -0.77570
C2074       C  0.73103323  0.59492716  0.05526167     1.03010
Cr2075     Cr  0.77297393  0.58604434  0.49796776     1.93740
Cr2076     Cr  0.83770775  0.64964846  0.50107342     1.93210
Cr2077     Cr  0.77355521  0.65098268  0.50004468     1.39100
O2078       O  0.79455772  0.62881966  0.49969346    -1.22650
C2079       C  0.87922421  0.79547610  0.17947911     0.03570
C2080       C  0.86026874  0.80987781  0.18998696    -0.12580
C2081       C  0.87543382  0.84086965  0.20798461     0.01070
C2082       C  0.90959201  0.85885745  0.20542017    -0.11100
C2083       C  0.92612142  0.84153226  0.21175094     0.03560
C2084       C  0.91173178  0.81023116  0.19426386    -0.10520
H2085       H  0.83401018  0.79655000  0.18655921     0.09160
H2086       H  0.92140118  0.88374318  0.21616803     0.06690
H2087       H  0.92471114  0.79680078  0.19450680     0.06540
C2088       C  0.62639720  0.54369756  0.17752427     0.03570
C2089       C  0.61082980  0.56153760  0.18842344    -0.12580
C2090       C  0.57976652  0.54564488  0.20662583     0.01070
C2091       C  0.56300740  0.51179178  0.20444801    -0.11100
C2092       C  0.58192397  0.49705249  0.21154187     0.03560
C2093       C  0.61313471  0.51190293  0.19332070    -0.10520
H2094       H  0.62360628  0.58760641  0.18525132     0.09160
H2095       H  0.53786303  0.49913845  0.21467313     0.06690
H2096       H  0.62703458  0.49941531  0.19288494     0.06540
C2097       C  0.54310395  0.87869905  0.32413441     0.03570
C2098       C  0.51003121  0.86165129  0.31249539    -0.12580
C2099       C  0.49609043  0.87827937  0.29338034     0.01070
C2100       C  0.51342094  0.91213188  0.29672429    -0.11100
C2101       C  0.54731542  0.92677324  0.29151033     0.03560
C2102       C  0.56264551  0.91062220  0.30925470    -0.10520
H2103       H  0.49628418  0.83555216  0.31512244     0.09160
H2104       H  0.50151931  0.92518758  0.28583653     0.06690
H2105       H  0.58896729  0.92193428  0.30971225     0.06540
C2106       C  0.54715509  0.87958331  0.18321768     0.03570
C2107       C  0.51494642  0.86121092  0.19937434    -0.12580
C2108       C  0.49830617  0.87695842  0.21427930     0.01070
C2109       C  0.51340565  0.91036330  0.20776391    -0.11100
C2110       C  0.54740173  0.92723556  0.21178327     0.03560
C2111       C  0.56414939  0.91303419  0.19312619    -0.10520
H2112       H  0.50356883  0.83518463  0.20210771     0.09160
H2113       H  0.50032882  0.92266710  0.21729118     0.06690
H2114       H  0.58990328  0.92818768  0.18792013     0.06540
O2115       O  0.66738147  0.78943632  0.05310246    -0.84910
O2116       O  0.61241167  0.73250994  0.03070471    -0.81950
C2117       C  0.59159573  0.73140429  0.05664358     0.98560
O2118       O  0.58038244  0.75043294  0.05323692    -0.81990
O2119       O  0.57761760  0.80489964  0.03152927    -0.84630
C2120       C  0.59698065  0.82522560  0.05785652     1.03080
O2121       O  0.62729012  0.83672036  0.05326576    -0.77390
O2122       O  0.68467579  0.83876452  0.03149543    -0.77580
C2123       C  0.68658523  0.81942931  0.05693659     1.03030
O2124       O  0.68446799  0.80255287  0.46598872    -0.84900
O2125       O  0.62639252  0.74916448  0.44370672    -0.81970
C2126       C  0.59597260  0.73141616  0.43953277     0.98580
O2127       O  0.57675858  0.73327558  0.46570466    -0.81990
O2128       O  0.58012367  0.79055791  0.44441803    -0.84600
C2129       C  0.59166093  0.82061982  0.44087995     1.03050
O2130       O  0.61368442  0.84016895  0.46558534    -0.77420
O2131       O  0.66855338  0.83611920  0.44445835    -0.77570
C2132       C  0.68688033  0.82391509  0.44068606     1.03010
Cr2133     Cr  0.64607298  0.77007624  0.49838948     1.93740
Cr2134     Cr  0.58196501  0.77132848  0.49872642     1.93210
Cr2135     Cr  0.64686115  0.83477798  0.49863336     1.39100
O2136       O  0.62498947  0.79208944  0.49837798    -1.22650
C2137       C  0.79579365  0.87822637  0.32340974     0.03570
C2138       C  0.81168344  0.86094492  0.30978437    -0.12580
C2139       C  0.84187840  0.87767878  0.28905079     0.01070
C2140       C  0.85823722  0.91135072  0.29312820    -0.11100
C2141       C  0.83861475  0.92553316  0.28844874     0.03560
C2142       C  0.80732385  0.90919258  0.30580433    -0.10520
H2143       H  0.80061524  0.83505257  0.31271292     0.09160
H2144       H  0.88319242  0.92470476  0.28228982     0.06690
H2145       H  0.79162880  0.91969506  0.30355741     0.06540
C2146       C  0.79405224  0.87757762  0.17683065     0.03570
C2147       C  0.80629502  0.90922918  0.19323474    -0.12580
C2148       C  0.83800744  0.92584422  0.20975492     0.01070
C2149       C  0.85730822  0.91128383  0.20430440    -0.11100
C2150       C  0.84094331  0.87759343  0.20858356     0.03560
C2151       C  0.81017905  0.86055499  0.18937081    -0.10520
H2152       H  0.79092435  0.92014969  0.19479918     0.09160
H2153       H  0.88249924  0.92468159  0.21430479     0.06690
H2154       H  0.79875620  0.83456810  0.18635806     0.06540
C2155       C  0.57577284  0.97865352  0.25193734     0.01010
C2156       C  0.56056623  0.94605634  0.25192114     0.01010
C2157       C  0.74751161  0.83040855  0.35663771    -0.11820
C2158       C  0.76689802  0.86416783  0.35244279     0.05180
C2159       C  0.75921659  0.88414665  0.37811014    -0.07110
C2160       C  0.73156826  0.87007817  0.40388755    -0.07860
C2161       C  0.71330270  0.83657969  0.40907607    -0.02410
C2162       C  0.72218780  0.81652851  0.38615614     0.04410
N2163       N  0.70651383  0.78223788  0.39270764     0.66920
H2164       H  0.75241238  0.81424955  0.33807486     0.15810
H2165       H  0.72593008  0.88564855  0.42290873     0.15530
N2166       N  0.78053500  0.91845100  0.38163326     0.74620
O2167       O  0.69842392  0.76355734  0.36124406    -0.38830
O2168       O  0.70959636  0.77173704  0.42774621    -0.38770
O2169       O  0.76884595  0.93723801  0.38189983    -0.39480
O2170       O  0.80999060  0.92941459  0.39184856    -0.39540
C2171       C  0.73340935  0.86668185  0.09062546    -0.11820
C2172       C  0.71255860  0.83300251  0.08982321     0.05180
C2173       C  0.71766009  0.81400363  0.11969989    -0.07110
C2174       C  0.74296535  0.82912471  0.14936887    -0.07860
C2175       C  0.76487060  0.86269621  0.14855046    -0.02410
C2176       C  0.75979398  0.88151017  0.11828386     0.04410
N2177       N  0.78230119  0.91535485  0.11287555     0.66920
H2178       H  0.73037680  0.88185247  0.06791267     0.15810
H2179       H  0.74593273  0.81413197  0.17235318     0.15530
N2180       N  0.69854861  0.77940743  0.11951253     0.74620
O2181       O  0.81180942  0.92478927  0.10459227    -0.38830
O2182       O  0.77178347  0.93498463  0.10937528    -0.38770
O2183       O  0.70049736  0.76364764  0.08864194    -0.39480
O2184       O  0.68586890  0.76470438  0.15327811    -0.39540
C2185       C  0.60595649  0.86194653  0.11893677    -0.11820
C2186       C  0.58400051  0.83664645  0.09278735     0.05180
C2187       C  0.55014621  0.82382363  0.09965132    -0.07110
C2188       C  0.53952853  0.83801877  0.12985722    -0.07860
C2189       C  0.56132742  0.86385179  0.15562709    -0.02410
C2190       C  0.59526099  0.87528126  0.15052961     0.04410
N2191       N  0.61945458  0.89988633  0.17702861     0.66920
H2192       H  0.63193135  0.87153905  0.11500562     0.15810
H2193       H  0.51354204  0.82876554  0.13247419     0.15530
N2194       N  0.52592072  0.79632021  0.07674252     0.74620
O2195       O  0.61772643  0.89658210  0.21641375    -0.38830
O2196       O  0.64472162  0.92291591  0.16100795    -0.38770
O2197       O  0.52559648  0.76969398  0.07886859    -0.39480
O2198       O  0.50111043  0.79661290  0.06258713    -0.39540
C2199       C  0.54506993  0.85807625  0.39371238    -0.11820
C2200       C  0.55601537  0.86297908  0.35200117     0.05180
C2201       C  0.57741775  0.85192844  0.33851910    -0.07110
C2202       C  0.58870087  0.83785354  0.36821237    -0.07860
C2203       C  0.57779016  0.83328482  0.40996750    -0.02410
C2204       C  0.55514485  0.84278440  0.42258977     0.04410
N2205       N  0.54132183  0.83603073  0.46405374     0.66920
H2206       H  0.52784300  0.86560880  0.40359941     0.15810
H2207       H  0.60567471  0.82991586  0.35870991     0.15530
N2208       N  0.58674513  0.85348322  0.29512094     0.74620
O2209       O  0.53439630  0.85555118  0.48210906    -0.38830
O2210       O  0.53097228  0.80830148  0.47951840    -0.38770
O2211       O  0.56741018  0.85116374  0.26622849    -0.39480
O2212       O  0.61218417  0.85249960  0.28544866    -0.39540
C2213       C  0.70798830  0.56815900  0.12409509    -0.11820
C2214       C  0.70416343  0.58131448  0.08644721     0.05180
C2215       C  0.67512290  0.58241110  0.07987722    -0.07110
C2216       C  0.65128679  0.57124014  0.11122586    -0.07860
C2217       C  0.65492863  0.55808945  0.14883456    -0.02410
C2218       C  0.68389496  0.55682428  0.15568214     0.04410
N2219       N  0.68992721  0.54560267  0.19476381     0.66920
H2220       H  0.73043576  0.56777987  0.12956227     0.15810
H2221       H  0.62876368  0.57137487  0.10521284     0.15530
N2222       N  0.66846366  0.59297318  0.04075372     0.74620
O2223       O  0.70779691  0.53280296  0.19554440    -0.38830
O2224       O  0.68048146  0.55159768  0.22912303    -0.38770
O2225       O  0.67177731  0.58142660  0.00644711    -0.39480
O2226       O  0.65419264  0.60945497  0.04071129    -0.39540
C2227       C  0.82168802  0.71444015  0.12755487    -0.11820
C2228       C  0.83774728  0.71794472  0.08905253     0.05180
C2229       C  0.86813889  0.74623531  0.08212331    -0.07110
C2230       C  0.88192837  0.76958051  0.11392225    -0.07860
C2231       C  0.86573773  0.76645448  0.15199165    -0.02410
C2232       C  0.83533274  0.73830501  0.15930804     0.04410
N2233       N  0.81857324  0.73315610  0.19883488     0.66920
H2234       H  0.79877922  0.69257086  0.13334002     0.15810
H2235       H  0.90463695  0.79159949  0.10768537     0.15530
N2236       N  0.88436648  0.75282213  0.04213507     0.74620
O2237       O  0.78803835  0.71512123  0.20066087    -0.38830
O2238       O  0.83441005  0.74394583  0.23262602    -0.38770
O2239       O  0.86897294  0.75117692  0.00895384    -0.39480
O2240       O  0.91500015  0.76561962  0.04062800    -0.39540
C2241       C  0.88022501  0.74792278  0.35478767    -0.11820
C2242       C  0.86311081  0.76479041  0.34729239     0.05180
C2243       C  0.83361222  0.75469934  0.36995189    -0.07110
C2244       C  0.82264325  0.72912816  0.39841359    -0.07860
C2245       C  0.84107745  0.71425069  0.40800208    -0.02410
C2246       C  0.87051948  0.72412588  0.38601898     0.04410
N2247       N  0.89225092  0.71239529  0.39708046     0.66920
H2248       H  0.90233352  0.75397625  0.33802601     0.15810
H2249       H  0.80003221  0.72204686  0.41495231     0.15530
N2250       N  0.81533701  0.77129181  0.36731343     0.74620
O2251       O  0.90614559  0.70511195  0.36854770    -0.38830
O2252       O  0.90266234  0.71574461  0.43435554    -0.38770
O2253       O  0.78535416  0.75564164  0.35845059    -0.39480
O2254       O  0.82733084  0.79971710  0.38163284    -0.39540
C2255       C  0.67685459  0.55054698  0.35161133    -0.11820
C2256       C  0.65528913  0.56288934  0.34941219     0.05180
C2257       C  0.66184402  0.59005038  0.37517070    -0.07110
C2258       C  0.68939766  0.60393513  0.40132253    -0.07860
C2259       C  0.70953223  0.59026458  0.40500505    -0.02410
C2260       C  0.70324455  0.56334524  0.37962527     0.04410
N2261       N  0.72374579  0.54906116  0.38122018     0.66920
H2262       H  0.67363405  0.53089825  0.33129826     0.15810
H2263       H  0.69356995  0.62403094  0.42158216     0.15530
N2264       N  0.63968564  0.60242120  0.37800914     0.74620
O2265       O  0.71127020  0.51868661  0.38051160    -0.38830
O2266       O  0.75412697  0.56656432  0.37673084    -0.38770
O2267       O  0.61034983  0.58387060  0.38816401    -0.39480
O2268       O  0.65050831  0.63255983  0.37738822    -0.39540
C2269       C  0.56037695  0.68468807  0.15905865    -0.11820
C2270       C  0.55347895  0.65380204  0.14557456     0.05180
C2271       C  0.55891873  0.64870543  0.10321885    -0.07110
C2272       C  0.57194961  0.67485676  0.07561126    -0.07860
C2273       C  0.57896490  0.70581086  0.08873940    -0.02410
C2274       C  0.57352120  0.71106827  0.13117271     0.04410
N2275       N  0.58255983  0.74287510  0.14688485     0.66920
H2276       H  0.55643458  0.68836885  0.19171682     0.15810
H2277       H  0.57565419  0.67076696  0.04299611     0.15530
N2278       N  0.55052489  0.61707765  0.08737721     0.74620
O2279       O  0.56778373  0.74613364  0.17802116    -0.38830
O2280       O  0.60781303  0.76740688  0.13340644    -0.38770
O2281       O  0.52469545  0.59238063  0.09917070    -0.39480
O2282       O  0.56671377  0.61420977  0.05767776    -0.39540
C2283       C  0.58234307  0.68352993  0.33751045    -0.11820
C2284       C  0.55481558  0.65421957  0.34851685     0.05180
C2285       C  0.54028955  0.65115489  0.38832543    -0.07110
C2286       C  0.55402206  0.67720465  0.41642031    -0.07860
C2287       C  0.58206048  0.70636530  0.40617626    -0.02410
C2288       C  0.59579869  0.71013849  0.36544169     0.04410
N2289       N  0.62179479  0.74079010  0.35098525     0.66920
H2290       H  0.59267079  0.68588904  0.30642314     0.15810
H2291       H  0.54333828  0.67410399  0.44742635     0.15530
N2292       N  0.51246774  0.62140645  0.40155137     0.74620
O2293       O  0.63893495  0.74174793  0.31991753    -0.38830
O2294       O  0.62398145  0.76691855  0.36393813    -0.38770
O2295       O  0.51164078  0.59474785  0.39577633    -0.39480
O2296       O  0.49056685  0.62207484  0.42364533    -0.39540
C2297       C  0.86015234  0.60696955  0.12273575    -0.11820
C2298       C  0.83505780  0.58617809  0.09535561     0.05180
C2299       C  0.82109953  0.55237961  0.10064711    -0.07110
C2300       C  0.83458056  0.54048881  0.12965993    -0.07860
C2301       C  0.86060147  0.56109810  0.15599267    -0.02410
C2302       C  0.87254465  0.59497373  0.15372552     0.04410
N2303       N  0.89645192  0.61751817  0.18272738     0.66920
H2304       H  0.87018332  0.63286888  0.12017350     0.15810
H2305       H  0.82473727  0.51455794  0.13082865     0.15530
N2306       N  0.79318430  0.52955907  0.07703702     0.74620
O2307       O  0.91701305  0.64562250  0.17080487    -0.38830
O2308       O  0.89500428  0.61072094  0.22123967    -0.38770
O2309       O  0.79353017  0.50619134  0.05853706    -0.39480
O2310       O  0.76647984  0.52932898  0.08110932    -0.39540
C2311       C  0.86294110  0.54996154  0.39373193    -0.11820
C2312       C  0.86232039  0.55686476  0.35112421     0.05180
C2313       C  0.84869233  0.57607878  0.33865483    -0.07110
C2314       C  0.83688388  0.58872209  0.36985655    -0.07860
C2315       C  0.83810608  0.58221691  0.41258929    -0.02410
C2316       C  0.85112774  0.56242530  0.42472858     0.04410
N2317       N  0.85154490  0.55371785  0.46786594     0.66920
H2318       H  0.87312165  0.53490638  0.40300114     0.15810
H2319       H  0.82624907  0.60341224  0.36083628     0.15530
N2320       N  0.84580655  0.58221737  0.29504834     0.74620
O2321       O  0.84540476  0.52542749  0.47669382    -0.38830
O2322       O  0.86283196  0.57515218  0.49623767    -0.38770
O2323       O  0.84116831  0.56131724  0.26725012    -0.39480
O2324       O  0.84418583  0.60694765  0.28469109    -0.39540
C2325       C  0.86120314  0.84584656  0.74747708     0.01010
C2326       C  0.84718989  0.86454445  0.74834276     0.01010
C2327       C  0.97783454  0.86479804  0.75316533     0.01010
C2328       C  0.94497254  0.84854114  0.75214816     0.01010
C2329       C  0.97501574  0.57506124  0.74750350     0.01010
C2330       C  0.94231480  0.55774963  0.74734065     0.01010
C2331       C  0.87616950  0.54301664  0.82156065     0.03570
C2332       C  0.90815536  0.56146433  0.80572806    -0.12580
C2333       C  0.92319037  0.54523768  0.78722562     0.01070
C2334       C  0.90780419  0.51170222  0.79299040    -0.11100
C2335       C  0.87369820  0.49536683  0.79059721     0.03560
C2336       C  0.85790567  0.51014581  0.81030170    -0.10520
H2337       H  0.92035156  0.58763346  0.80615251     0.09160
H2338       H  0.92023657  0.49917612  0.78173973     0.06690
H2339       H  0.83166016  0.49712941  0.81402114     0.06540
C2340       C  0.87609511  0.54596699  0.68129244     0.03570
C2341       C  0.85691027  0.51440288  0.69779149    -0.12580
C2342       C  0.87196590  0.49703881  0.71165963     0.01070
C2343       C  0.90543766  0.51072169  0.70401928    -0.11100
C2344       C  0.92364914  0.54447478  0.70714401     0.03560
C2345       C  0.91009182  0.56161789  0.68846971    -0.10520
H2346       H  0.83084354  0.50413315  0.70163778     0.09160
H2347       H  0.91714166  0.49709455  0.71329358     0.06690
H2348       H  0.92588981  0.58692412  0.68185806     0.06540
C2349       C  0.84376801  0.94470179  0.74955508     0.01010
C2350       C  0.85960804  0.97718348  0.75059094     0.01010
C2351       C  0.54142302  0.62660503  0.81892434     0.03570
C2352       C  0.56076814  0.61374539  0.80375768    -0.12580
C2353       C  0.54526038  0.58280049  0.78537809     0.01070
C2354       C  0.51142062  0.56419361  0.79079940    -0.11100
C2355       C  0.49426884  0.58109694  0.78713663     0.03560
C2356       C  0.50859113  0.61188622  0.80578046    -0.10740
H2357       H  0.58711957  0.62780215  0.80495013     0.09160
H2358       H  0.49945456  0.53925868  0.78029641     0.06690
H2359       H  0.49510357  0.62475498  0.80828805     0.06540
C2360       C  0.54076624  0.62669489  0.67536972     0.03570
C2361       C  0.55997447  0.61295872  0.68758785    -0.12580
C2362       C  0.54467413  0.58212418  0.70585558     0.01070
C2363       C  0.51065979  0.56409964  0.70202375    -0.11100
C2364       C  0.49417670  0.58156458  0.70773336     0.03560
C2365       C  0.50848427  0.61256313  0.69012572    -0.10520
H2366       H  0.58626704  0.62663638  0.68483548     0.09160
H2367       H  0.49859931  0.53916641  0.71214819     0.06690
H2368       H  0.49529623  0.62578108  0.68926288     0.06540
C2369       C  0.55847066  0.57685210  0.74551371     0.01010
C2370       C  0.57420898  0.55980535  0.74574602     0.01010
C2371       C  0.62560762  0.54648064  0.82193501     0.03570
C2372       C  0.61255374  0.56428343  0.80265839    -0.12580
C2373       C  0.58099788  0.54791754  0.78575847     0.01070
C2374       C  0.56258118  0.51459374  0.79312245    -0.11100
C2375       C  0.58001105  0.49788747  0.79151910     0.03560
C2376       C  0.61049477  0.51297989  0.81166499    -0.10520
H2377       H  0.62726444  0.59021608  0.79891213     0.09160
H2378       H  0.53749017  0.50201557  0.78260598     0.06690
H2379       H  0.62246668  0.49898440  0.81685037     0.06540
C2380       C  0.87786897  0.79448145  0.81980502     0.03570
C2381       C  0.85863728  0.80627404  0.80093086    -0.12580
C2382       C  0.87348645  0.83834383  0.78662968     0.01070
C2383       C  0.90684090  0.85797594  0.79463430    -0.11100
C2384       C  0.92524497  0.84237455  0.79162749     0.03560
C2385       C  0.91171738  0.81173335  0.81012144    -0.10520
H2386       H  0.83295889  0.79035560  0.79496335     0.09160
H2387       H  0.91830621  0.88304004  0.78509957     0.06690
H2388       H  0.92731263  0.80138776  0.81387007     0.06540
O2389       O  0.73623097  0.58176403  0.96231981    -0.84910
O2390       O  0.79456196  0.58506322  0.94510378    -0.81950
C2391       C  0.82471985  0.59538133  0.94371411     0.98560
O2392       O  0.84359836  0.61640063  0.96969493    -0.81990
O2393       O  0.84016756  0.67042154  0.94621574    -0.84630
C2394       C  0.82896405  0.68942890  0.94173863     1.03080
O2395       O  0.80744953  0.68810041  0.96683974    -0.77390
O2396       O  0.75172756  0.63201637  0.94564466    -0.77580
C2397       C  0.73424532  0.60206181  0.93888364     1.03030
O2398       O  0.74924244  0.58275296  0.55083343    -0.84900
O2399       O  0.80519169  0.58111079  0.53302115    -0.81970
C2400       C  0.82509568  0.59994087  0.56027044     0.98580
O2401       O  0.83766783  0.63017295  0.55613442    -0.81990
O2402       O  0.84291901  0.68819063  0.53263977    -0.84600
C2403       C  0.82382605  0.69133822  0.55749766     1.03050
O2404       O  0.79349186  0.67245954  0.55460319    -0.77420
O2405       O  0.73507983  0.61842829  0.53270435    -0.77570
C2406       C  0.73103322  0.59492716  0.55526164     1.03010
Cr2407     Cr  0.77297393  0.58604433  0.99796780     1.93740
Cr2408     Cr  0.83770775  0.64964845  0.00107345     1.93210
Cr2409     Cr  0.77355522  0.65098267  0.00004471     1.39100
O2410       O  0.79455773  0.62881966  0.99969349    -1.22650
C2411       C  0.87922420  0.79547609  0.67947911     0.03570
C2412       C  0.86026873  0.80987779  0.68998697    -0.12580
C2413       C  0.87543381  0.84086964  0.70798462     0.01070
C2414       C  0.90959200  0.85885744  0.70542017    -0.11100
C2415       C  0.92612141  0.84153224  0.71175094     0.03560
C2416       C  0.91173177  0.81023114  0.69426385    -0.10520
H2417       H  0.83401017  0.79654999  0.68655922     0.09160
H2418       H  0.92140117  0.88374316  0.71616804     0.06690
H2419       H  0.92471113  0.79680076  0.69450679     0.06540
C2420       C  0.62639722  0.54369755  0.67752427     0.03570
C2421       C  0.61082981  0.56153760  0.68842344    -0.12580
C2422       C  0.57976654  0.54564488  0.70662584     0.01070
C2423       C  0.56300742  0.51179178  0.70444802    -0.11100
C2424       C  0.58192399  0.49705249  0.71154188     0.03560
C2425       C  0.61313473  0.51190293  0.69332070    -0.10520
H2426       H  0.62360629  0.58760640  0.68525132     0.09160
H2427       H  0.53786305  0.49913844  0.71467314     0.06690
H2428       H  0.62703460  0.49941531  0.69288494     0.06540
C2429       C  0.54310396  0.87869905  0.82413441     0.03570
C2430       C  0.51003122  0.86165131  0.81249539    -0.12580
C2431       C  0.49609044  0.87827938  0.79338034     0.01070
C2432       C  0.51342096  0.91213189  0.79672430    -0.11100
C2433       C  0.54731544  0.92677326  0.79151034     0.03560
C2434       C  0.56264552  0.91062221  0.80925471    -0.10520
H2435       H  0.49628419  0.83555217  0.81512244     0.09160
H2436       H  0.50151934  0.92518760  0.78583653     0.06690
H2437       H  0.58896730  0.92193428  0.80971227     0.06540
C2438       C  0.54715511  0.87958332  0.68321769     0.03570
C2439       C  0.51494644  0.86121094  0.69937434    -0.12580
C2440       C  0.49830619  0.87695844  0.71427930     0.01070
C2441       C  0.51340568  0.91036332  0.70776391    -0.11100
C2442       C  0.54740176  0.92723557  0.71178329     0.03560
C2443       C  0.56414942  0.91303420  0.69312622    -0.10520
H2444       H  0.50356884  0.83518464  0.70210770     0.09160
H2445       H  0.50032885  0.92266713  0.71729118     0.06690
H2446       H  0.58990331  0.92818768  0.68792019     0.06540
O2447       O  0.66738148  0.78943631  0.55310243    -0.84910
O2448       O  0.61241167  0.73250994  0.53070470    -0.81950
C2449       C  0.59159574  0.73140429  0.55664357     0.98560
O2450       O  0.58038245  0.75043294  0.55323692    -0.81990
O2451       O  0.57761760  0.80489964  0.53152927    -0.84630
C2452       C  0.59698065  0.82522560  0.55785652     1.03080
O2453       O  0.62729013  0.83672036  0.55326576    -0.77390
O2454       O  0.68467579  0.83876451  0.53149542    -0.77580
C2455       C  0.68658524  0.81942931  0.55693658     1.03030
O2456       O  0.68446799  0.80255287  0.96598875    -0.84900
O2457       O  0.62639253  0.74916448  0.94370674    -0.81970
C2458       C  0.59597261  0.73141616  0.93953278     0.98580
O2459       O  0.57675859  0.73327558  0.96570467    -0.81990
O2460       O  0.58012367  0.79055791  0.94441803    -0.84600
C2461       C  0.59166093  0.82061982  0.94087995     1.03050
O2462       O  0.61368442  0.84016895  0.96558535    -0.77420
O2463       O  0.66855338  0.83611919  0.94445836    -0.77570
C2464       C  0.68688033  0.82391509  0.94068607     1.03010
Cr2465     Cr  0.64607298  0.77007624  0.99838950     1.93740
Cr2466     Cr  0.58196500  0.77132848  0.99872642     1.93210
Cr2467     Cr  0.64686115  0.83477798  0.99863336     1.39100
O2468       O  0.62498947  0.79208944  0.99837799    -1.22650
C2469       C  0.79579365  0.87822636  0.82340976     0.03570
C2470       C  0.81168344  0.86094491  0.80978438    -0.12580
C2471       C  0.84187839  0.87767877  0.78905080     0.01070
C2472       C  0.85823722  0.91135071  0.79312821    -0.11100
C2473       C  0.83861475  0.92553315  0.78844875     0.03560
C2474       C  0.80732385  0.90919257  0.80580435    -0.10520
H2475       H  0.80061524  0.83505256  0.81271294     0.09160
H2476       H  0.88319242  0.92470475  0.78228982     0.06690
H2477       H  0.79162880  0.91969505  0.80355744     0.06540
C2478       C  0.79405224  0.87757761  0.67683065     0.03570
C2479       C  0.80629501  0.90922916  0.69323475    -0.12580
C2480       C  0.83800743  0.92584421  0.70975493     0.01070
C2481       C  0.85730822  0.91128382  0.70430441    -0.11100
C2482       C  0.84094331  0.87759341  0.70858357     0.03560
C2483       C  0.81017905  0.86055498  0.68937082    -0.10520
H2484       H  0.79092434  0.92014967  0.69479918     0.09160
H2485       H  0.88249924  0.92468158  0.71430480     0.06690
H2486       H  0.79875620  0.83456809  0.68635806     0.06540
C2487       C  0.57577285  0.97865353  0.75193735     0.01010
C2488       C  0.56056625  0.94605636  0.75192115     0.01010
C2489       C  0.74751160  0.83040854  0.85663772    -0.11820
C2490       C  0.76689803  0.86416782  0.85244281     0.05180
C2491       C  0.75921660  0.88414665  0.87811017    -0.07110
C2492       C  0.73156827  0.87007816  0.90388758    -0.07860
C2493       C  0.71330270  0.83657969  0.90907609    -0.02410
C2494       C  0.72218779  0.81652851  0.88615615     0.04410
N2495       N  0.70651380  0.78223787  0.89270763     0.66920
H2496       H  0.75241237  0.81424955  0.83807486     0.15810
H2497       H  0.72593011  0.88564854  0.92290878     0.15530
N2498       N  0.78053503  0.91845099  0.88163331     0.74620
O2499       O  0.69842391  0.76355734  0.86124404    -0.38830
O2500       O  0.70959631  0.77173701  0.92774620    -0.38770
O2501       O  0.76884599  0.93723801  0.88189990    -0.39480
O2502       O  0.80999063  0.92941457  0.89184859    -0.39540
C2503       C  0.73340936  0.86668184  0.59062545    -0.11820
C2504       C  0.71255861  0.83300250  0.58982319     0.05180
C2505       C  0.71766010  0.81400362  0.61969985    -0.07110
C2506       C  0.74296537  0.82912470  0.64936884    -0.07860
C2507       C  0.76487060  0.86269619  0.64855045    -0.02410
C2508       C  0.75979398  0.88151016  0.61828386     0.04410
N2509       N  0.78230119  0.91535485  0.61287556     0.66920
H2510       H  0.73037680  0.88185246  0.56791267     0.15810
H2511       H  0.74593274  0.81413195  0.67235315     0.15530
N2512       N  0.69854864  0.77940742  0.61951247     0.74620
O2513       O  0.81180942  0.92478927  0.60459229    -0.38830
O2514       O  0.77178347  0.93498462  0.60937530    -0.38770
O2515       O  0.70049740  0.76364765  0.58864185    -0.39480
O2516       O  0.68586895  0.76470435  0.65327804    -0.39540
C2517       C  0.60595650  0.86194653  0.61893677    -0.11820
C2518       C  0.58400052  0.83664645  0.59278735     0.05180
C2519       C  0.55014622  0.82382363  0.59965131    -0.07110
C2520       C  0.53952854  0.83801878  0.62985722    -0.07860
C2521       C  0.56132744  0.86385180  0.65562710    -0.02410
C2522       C  0.59526100  0.87528126  0.65052962     0.04410
N2523       N  0.61945460  0.89988633  0.67702861     0.66920
H2524       H  0.63193137  0.87153904  0.61500562     0.15810
H2525       H  0.51354205  0.82876556  0.63247419     0.15530
N2526       N  0.52592072  0.79632023  0.57674251     0.74620
O2527       O  0.61772649  0.89658207  0.71641374    -0.38830
O2528       O  0.64472161  0.92291594  0.66100793    -0.38770
O2529       O  0.52559647  0.76969399  0.57886858    -0.39480
O2530       O  0.50111044  0.79661293  0.56258712    -0.39540
C2531       C  0.54506993  0.85807624  0.89371238    -0.11820
C2532       C  0.55601538  0.86297908  0.85200117     0.05180
C2533       C  0.57741776  0.85192845  0.83851911    -0.07110
C2534       C  0.58870087  0.83785354  0.86821237    -0.07860
C2535       C  0.57779016  0.83328482  0.90996750    -0.02410
C2536       C  0.55514484  0.84278440  0.92258977     0.04410
N2537       N  0.54132182  0.83603072  0.96405374     0.66920
H2538       H  0.52784300  0.86560880  0.90359941     0.15810
H2539       H  0.60567472  0.82991587  0.85870992     0.15530
N2540       N  0.58674515  0.85348323  0.79512094     0.74620
O2541       O  0.53439629  0.85555117  0.98210906    -0.38830
O2542       O  0.53097228  0.80830147  0.97951840    -0.38770
O2543       O  0.56741021  0.85116377  0.76622849    -0.39480
O2544       O  0.61218417  0.85249960  0.78544867    -0.39540
C2545       C  0.70798831  0.56815899  0.62409507    -0.11820
C2546       C  0.70416343  0.58131447  0.58644719     0.05180
C2547       C  0.67512290  0.58241109  0.57987720    -0.07110
C2548       C  0.65128680  0.57124013  0.61122585    -0.07860
C2549       C  0.65492865  0.55808945  0.64883454    -0.02410
C2550       C  0.68389497  0.55682428  0.65568212     0.04410
N2551       N  0.68992723  0.54560267  0.69476379     0.66920
H2552       H  0.73043577  0.56777987  0.62956224     0.15810
H2553       H  0.62876368  0.57137486  0.60521283     0.15530
N2554       N  0.66846366  0.59297317  0.54075371     0.74620
O2555       O  0.70779693  0.53280296  0.69554437    -0.38830
O2556       O  0.68048149  0.55159768  0.72912301    -0.38770
O2557       O  0.67177731  0.58142659  0.50644710    -0.39480
O2558       O  0.65419263  0.60945496  0.54071128    -0.39540
C2559       C  0.82168801  0.71444014  0.62755485    -0.11820
C2560       C  0.83774727  0.71794472  0.58905251     0.05180
C2561       C  0.86813888  0.74623531  0.58212330    -0.07110
C2562       C  0.88192836  0.76958051  0.61392224    -0.07860
C2563       C  0.86573771  0.76645447  0.65199164    -0.02410
C2564       C  0.83533272  0.73830500  0.65930803     0.04410
N2565       N  0.81857322  0.73315608  0.69883486     0.66920
H2566       H  0.79877921  0.69257085  0.63334000     0.15810
H2567       H  0.90463693  0.79159949  0.60768537     0.15530
N2568       N  0.88436647  0.75282214  0.54213505     0.74620
O2569       O  0.78803834  0.71512122  0.70066086    -0.38830
O2570       O  0.83441004  0.74394581  0.73262601    -0.38770
O2571       O  0.86897293  0.75117693  0.50895383    -0.39480
O2572       O  0.91500014  0.76561963  0.54062799    -0.39540
C2573       C  0.88022503  0.74792279  0.85478771    -0.11820
C2574       C  0.86311081  0.76479040  0.84729240     0.05180
C2575       C  0.83361221  0.75469930  0.86995188    -0.07110
C2576       C  0.82264325  0.72912813  0.89841359    -0.07860
C2577       C  0.84107746  0.71425068  0.90800210    -0.02410
C2578       C  0.87051950  0.72412588  0.88601903     0.04410
N2579       N  0.89225096  0.71239532  0.89708054     0.66920
H2580       H  0.90233355  0.75397627  0.83802607     0.15810
H2581       H  0.80003219  0.72204681  0.91495229     0.15530
N2582       N  0.81533698  0.77129176  0.86731340     0.74620
O2583       O  0.90614565  0.70511201  0.86854780    -0.38830
O2584       O  0.90266234  0.71574464  0.93435563    -0.38770
O2585       O  0.78535414  0.75564157  0.85845052    -0.39480
O2586       O  0.82733078  0.79971704  0.88163282    -0.39540
C2587       C  0.67685461  0.55054699  0.85161134    -0.11820
C2588       C  0.65528915  0.56288934  0.84941221     0.05180
C2589       C  0.66184403  0.59005037  0.87517072    -0.07110
C2590       C  0.68939767  0.60393513  0.90132256    -0.07860
C2591       C  0.70953224  0.59026458  0.90500508    -0.02410
C2592       C  0.70324457  0.56334525  0.87962528     0.04410
N2593       N  0.72374581  0.54906117  0.88122019     0.66920
H2594       H  0.67363408  0.53089826  0.83129827     0.15810
H2595       H  0.69356994  0.62403093  0.92158220     0.15530
N2596       N  0.63968564  0.60242118  0.87800917     0.74620
O2597       O  0.71127023  0.51868663  0.88051161    -0.38830
O2598       O  0.75412700  0.56656434  0.87673085    -0.38770
O2599       O  0.61034983  0.58387058  0.88816402    -0.39480
O2600       O  0.65050831  0.63255982  0.87738826    -0.39540
C2601       C  0.56037696  0.68468807  0.65905864    -0.11820
C2602       C  0.55347898  0.65380205  0.64557456     0.05180
C2603       C  0.55891877  0.64870544  0.60321886    -0.07110
C2604       C  0.57194965  0.67485676  0.57561127    -0.07860
C2605       C  0.57896491  0.70581087  0.58873940    -0.02410
C2606       C  0.57352120  0.71106827  0.63117270     0.04410
N2607       N  0.58255982  0.74287510  0.64688484     0.66920
H2608       H  0.55643458  0.68836885  0.69171682     0.15810
H2609       H  0.57565423  0.67076697  0.54299612     0.15530
N2610       N  0.55052495  0.61707766  0.58737723     0.74620
O2611       O  0.56778370  0.74613364  0.67802113    -0.38830
O2612       O  0.60781302  0.76740689  0.63340644    -0.38770
O2613       O  0.52469551  0.59238064  0.59917071    -0.39480
O2614       O  0.56671385  0.61420979  0.55767779    -0.39540
C2615       C  0.58234308  0.68352994  0.83751046    -0.11820
C2616       C  0.55481561  0.65421957  0.84851686     0.05180
C2617       C  0.54028958  0.65115488  0.88832544    -0.07110
C2618       C  0.55402209  0.67720464  0.91642033    -0.07860
C2619       C  0.58206049  0.70636530  0.90617627    -0.02410
C2620       C  0.59579870  0.71013850  0.86544170     0.04410
N2621       N  0.62179478  0.74079011  0.85098526     0.66920
H2622       H  0.59267080  0.68588906  0.80642314     0.15810
H2623       H  0.54333832  0.67410398  0.94742637     0.15530
N2624       N  0.51246779  0.62140644  0.90155139     0.74620
O2625       O  0.63893493  0.74174796  0.81991752    -0.38830
O2626       O  0.62398144  0.76691856  0.86393815    -0.38770
O2627       O  0.51164084  0.59474784  0.89577634    -0.39480
O2628       O  0.49056690  0.62207480  0.92364538    -0.39540
C2629       C  0.86015233  0.60696956  0.62273572    -0.11820
C2630       C  0.83505779  0.58617810  0.59535558     0.05180
C2631       C  0.82109952  0.55237962  0.60064708    -0.07110
C2632       C  0.83458055  0.54048881  0.62965990    -0.07860
C2633       C  0.86060146  0.56109810  0.65599265    -0.02410
C2634       C  0.87254464  0.59497373  0.65372550     0.04410
N2635       N  0.89645191  0.61751817  0.68272736     0.66920
H2636       H  0.87018331  0.63286888  0.62017348     0.15810
H2637       H  0.82473725  0.51455794  0.63082863     0.15530
N2638       N  0.79318430  0.52955908  0.57703698     0.74620
O2639       O  0.91701304  0.64562250  0.67080485    -0.38830
O2640       O  0.89500426  0.61072095  0.72123965    -0.38770
O2641       O  0.79353017  0.50619135  0.55853701    -0.39480
O2642       O  0.76647983  0.52932899  0.58110928    -0.39540
C2643       C  0.86294105  0.54996150  0.89373193    -0.11820
C2644       C  0.86232037  0.55686474  0.85112421     0.05180
C2645       C  0.84869233  0.57607879  0.83865485    -0.07110
C2646       C  0.83688389  0.58872210  0.86985657    -0.07860
C2647       C  0.83810607  0.58221689  0.91258931    -0.02410
C2648       C  0.85112770  0.56242526  0.92472859     0.04410
N2649       N  0.85154484  0.55371778  0.96786595     0.66920
H2650       H  0.87312158  0.53490632  0.90300113     0.15810
H2651       H  0.82624911  0.60341228  0.86083632     0.15530
N2652       N  0.84580657  0.58221741  0.79504836     0.74620
O2653       O  0.84540470  0.52542742  0.97669380    -0.38830
O2654       O  0.86283188  0.57515209  0.99623769    -0.38770
O2655       O  0.84116831  0.56131728  0.76725014    -0.39480
O2656       O  0.84418588  0.60694771  0.78469113    -0.39540
loop_ 
_geom_bond_atom_site_label_1 
_geom_bond_atom_site_label_2 
_geom_bond_distance 
_geom_bond_site_symmetry_2 
_ccdc_geom_bond_type 
C1            C2   1.347       .  D
C1           C58   1.493       .  S
C1           C89   1.495       .  S
C2          C147   1.508       .  S
C2          C158   1.505       .  S
C3            C4   1.349       .  D
C3         C1435   1.496       .  S
C3         C1444   1.500       .  S
C4           C60   1.503       .  S
C4           C91   1.503       .  S
C5            C6   1.343       .  D
C5         C1359   1.497       .  S
C5         C1368   1.496       .  S
C6            C9   1.500       .  S
C6           C20   1.501       .  S
C7            C8   1.413       .  A
C7           C12   1.407       .  A
C7          C320   1.471       .  S
C8            C9   1.408       .  A
C8           H13   1.083       .  S
C9           C10   1.402       .  A
C10          C11   1.402   1_545  A
C10          H14   1.083   1_545  S
C11         C690   1.494       .  S
C11          C12   1.399   1_565  A
C12          H15   1.084   1_545  S
C16          C17   1.419       .  A
C16          C21   1.414       .  A
C16         C309   1.495       .  S
C17          C18   1.404   1_545  A
C17          H22   1.084       .  S
C18         C690   1.494       .  S
C18          C19   1.401   1_565  A
C19          C20   1.400       .  A
C19          H23   1.083   1_545  S
C20          C21   1.398       .  A
C21          H24   1.079       .  S
C25          C26   1.344       .  D
C25         C149   1.488       .  S
C25         C156   1.492       .  S
C26         C675   1.494       .  S
C26         C682   1.494       .  S
C27          C28   1.411       .  A
C27          C32   1.412       .  A
C27         C292   1.476       .  S
C28          C29   1.404       .  A
C28          H33   1.083       .  S
C29          C45   1.498       .  S
C29          C30   1.403       .  A
C30          C31   1.402   1_455  A
C30          H34   1.082   1_455  S
C31        C1333   1.497       .  S
C31          C32   1.402   1_655  A
C32          H35   1.083   1_455  S
C36          C37   1.412       .  A
C36          C41   1.408       .  A
C36         C278   1.473       .  S
C37          C38   1.405       .  A
C37          H42   1.083       .  S
C38          C45   1.499       .  S
C38          C39   1.402       .  A
C39          C40   1.403   1_455  A
C39          H43   1.082   1_455  S
C40        C1333   1.496       .  S
C40          C41   1.403   1_655  A
C41          H44   1.083   1_455  S
C45          C46   1.345       .  D
C46          C49   1.494       .  S
C46          C98   1.495       .  S
C47          C48   1.414       .  A
C47          C52   1.424       .  A
C47         C264   1.500       .  S
C48          C49   1.402       .  A
C48          H53   1.083       .  S
C49          C50   1.402       .  A
C50          C51   1.401   1_545  A
C50          H54   1.082       .  S
C51         C827   1.506       .  S
C51          C52   1.405   1_565  A
C52          H55   1.080   1_545  S
C56          C57   1.419       .  A
C56          C61   1.423       .  A
C56         C250   1.512       .  S
C57          C58   1.406       .  A
C57          H62   1.082       .  S
C58          C59   1.400       .  A
C59          C60   1.398       .  A
C59          H63   1.083       .  S
C60          C61   1.403       .  A
C61          H64   1.077       .  S
O65         Cr83   1.999       .  S
O65          C73   1.264       .  A
O66         Cr83   1.977       .  S
O66          C67   1.257       .  A
C67         C323   1.468       .  S
C67          O68   1.260       .  A
O68         Cr84   1.999       .  S
O69         Cr84   1.986       .  S
O69          C70   1.263       .  A
C70         C253   1.489       .  S
C70          O71   1.268       .  A
O71         Cr85   2.004       .  S
O72         Cr85   1.984       .  S
O72          C73   1.262       .  A
C73         C267   1.479       .  S
O74        Cr415   1.982   1_554  S
O74          C82   1.260       .  A
O75        Cr415   1.995   1_554  S
O75          C76   1.264       .  A
C76         C306   1.488       .  S
C76          O77   1.264       .  A
O77        Cr416   1.986       .  S
O78        Cr416   1.991       .  S
O78          C79   1.261       .  A
C79         C236   1.485       .  S
C79          O80   1.262       .  A
O80        Cr417   1.993       .  S
O81        Cr417   2.001       .  S
O81          C82   1.265       .  A
C82         C222   1.484       .  S
Cr83        O406   1.982       .  S
Cr83        O407   1.995       .  S
Cr83         O86   1.770       .  S
Cr84        O409   1.986       .  S
Cr84        O410   1.991       .  S
Cr84         O86   1.771       .  S
Cr85        O412   1.993       .  S
Cr85        O413   2.001       .  S
Cr85         O86   1.771       .  S
C87          C88   1.410       .  A
C87          C92   1.415       .  A
C87         C239   1.481       .  S
C88          C89   1.401       .  A
C88          H93   1.083       .  S
C89          C90   1.405       .  A
C90          C91   1.404       .  A
C90          H94   1.083       .  S
C91          C92   1.407       .  A
C92          H95   1.083       .  S
C96          C97   1.413       .  A
C96         C101   1.416       .  A
C96         C225   1.485       .  S
C97          C98   1.401       .  A
C97         H102   1.084       .  S
C98          C99   1.401       .  A
C99         C100   1.402   1_545  A
C99         H103   1.082   1_545  S
C100        C827   1.504       .  S
C100        C101   1.407   1_565  A
C101        H104   1.082   1_545  S
C105        C106   1.407       .  A
C105        C110   1.415       .  A
C105        C208   1.477       .  S
C106        C107   1.398   1_455  A
C106        H111   1.084   1_455  S
C107       C1331   1.496       .  S
C107        C108   1.404   1_655  A
C108        C109   1.404       .  A
C108        H112   1.083       .  S
C109        C164   1.504       .  S
C109        C110   1.412       .  A
C110        H113   1.083       .  S
C114        C115   1.424       .  A
C114        C119   1.417       .  A
C114        C197   1.505       .  S
C115        C116   1.408   1_455  A
C115        H120   1.083       .  S
C116       C1331   1.500       .  S
C116        C117   1.400   1_655  A
C117        C118   1.401       .  A
C117        H121   1.083       .  S
C118        C164   1.502       .  S
C118        C119   1.399       .  A
C119        H122   1.077       .  S
O123       Cr473   1.990   1_554  S
O123        C131   1.262       .  A
O124       Cr473   1.996   1_554  S
O124        C125   1.263       .  A
C125        C281   1.475       .  S
C125        O126   1.261       .  A
O126       Cr474   1.987   1_554  S
O127       Cr474   1.997   1_554  S
O127        C128   1.261       .  A
C128        C194   1.492       .  S
C128        O129   1.263       .  A
O129       Cr475   1.989   1_554  S
O130       Cr475   1.997   1_554  S
O130        C131   1.266       .  A
C131        C180   1.493       .  S
O132       Cr141   1.994       .  S
O132        C140   1.261       .  A
O133       Cr141   1.987       .  S
O133        C134   1.262       .  A
C134        C295   1.480       .  S
C134        O135   1.265       .  A
O135       Cr142   1.995       .  S
O136       Cr142   1.982       .  S
O136        C137   1.260       .  A
C137        C211   1.470       .  S
C137        O138   1.265       .  A
O138       Cr143   2.009       .  S
O139       Cr143   1.988       .  S
O139        C140   1.264       .  A
C140        C169   1.479       .  S
Cr141       O455   1.990       .  S
Cr141       O456   1.996       .  S
Cr141       O144   1.768       .  S
Cr142       O458   1.987       .  S
Cr142       O459   1.997       .  S
Cr142       O144   1.766       .  S
Cr143       O461   1.989       .  S
Cr143       O462   1.997       .  S
Cr143       O144   1.766       .  S
C145        C146   1.426       .  A
C145        C150   1.413       .  A
C145        C166   1.504       .  S
C146        C147   1.407       .  A
C146        H151   1.079       .  S
C147        C148   1.398       .  A
C148        C149   1.400       .  A
C148        H152   1.082       .  S
C149        C150   1.399       .  A
C150        H153   1.083       .  S
C154        C155   1.416       .  A
C154        C159   1.419       .  A
C154        C183   1.497       .  S
C155        C156   1.404       .  A
C155        H160   1.083       .  S
C156        C157   1.402       .  A
C157        C158   1.401       .  A
C157        H161   1.082       .  S
C158        C159   1.405       .  A
C159        H162   1.081       .  S
C163        C164   1.349       .  D
C163        C715   1.506       .  S
C163        C764   1.504       .  S
C165        C166   1.408       .  A
C165        C170   1.403       .  A
C165        H172   1.079       .  S
C166        C167   1.426       .  A
C167        C168   1.401       .  A
C167        N174   1.436       .  S
C168        C169   1.398       .  A
C168        H173   1.084       .  S
C169        C170   1.416       .  A
C170        N171   1.436       .  S
N171        O175   1.262       .  A
N171        O176   1.262       .  A
N174        O177   1.263       .  A
N174        O178   1.263       .  A
C179        C180   1.406       .  A
C179        C184   1.397       .  A
C179        H186   1.083       .  S
C180        C181   1.417       .  A
C181        C182   1.408       .  A
C181        N188   1.433       .  S
C182        C183   1.410       .  A
C182        H187   1.081       .  S
C183        C184   1.418       .  A
C184        N185   1.436       .  S
N185        O189   1.263       .  A
N185        O190   1.263       .  A
N188        O191   1.263       .  A
N188        O192   1.262       .  A
C193        C194   1.404       .  A
C193        C198   1.405       .  A
C193        H200   1.084       .  S
C194        C195   1.418       .  A
C195        C196   1.399       .  A
C195        N202   1.436       .  S
C196        C197   1.407       .  A
C196        H201   1.083       .  S
C197        C198   1.424       .  A
C198        N199   1.433       .  S
N199        O203   1.261       .  A
N199        O204   1.263       .  A
N202        O205   1.262       .  A
N202        O206   1.263       .  A
C207        C208   1.401       .  A
C207        C212   1.398       .  A
C207        H214   1.085       .  S
C208        C209   1.416       .  A
C209        C210   1.410       .  A
C209        N216   1.439       .  S
C210        C211   1.402       .  A
C210        H215   1.084       .  S
C211        C212   1.409       .  A
C212        N213   1.436       .  S
N213        O217   1.263       .  A
N213        O218   1.262       .  A
N216        O219   1.262       .  A
N216        O220   1.263       .  A
C221        C222   1.407       .  A
C221        C226   1.410       .  A
C221        H228   1.084       .  S
C222        C223   1.415       .  A
C223        C224   1.398       .  A
C223        N230   1.437       .  S
C224        C225   1.403       .  A
C224        H229   1.085       .  S
C225        C226   1.417       .  A
C226        N227   1.439       .  S
N227        O231   1.263       .  A
N227        O232   1.263       .  A
N230        O233   1.263       .  A
N230        O234   1.263       .  A
C235        C236   1.406       .  A
C235        C240   1.410       .  A
C235        H242   1.084       .  S
C236        C237   1.418       .  A
C237        C238   1.398       .  A
C237        N244   1.437       .  S
C238        C239   1.399       .  A
C238        H243   1.085       .  S
C239        C240   1.417       .  A
C240        N241   1.440       .  S
N241        O245   1.263       .  A
N241        O246   1.263       .  A
N244        O247   1.263       .  A
N244        O248   1.263       .  A
C249        C250   1.415       .  A
C249        C254   1.406       .  A
C249        H256   1.077       .  S
C250        C251   1.424       .  A
C251        C252   1.399       .  A
C251        N258   1.433       .  S
C252        C253   1.403       .  A
C252        H257   1.084       .  S
C253        C254   1.413       .  A
C254        N255   1.436       .  S
N255        O259   1.262       .  A
N255        O260   1.263       .  A
N258        O261   1.263       .  A
N258        O262   1.262       .  A
C263        C264   1.408       .  A
C263        C268   1.402       .  A
C263        H270   1.080       .  S
C264        C265   1.425       .  A
C265        C266   1.403       .  A
C265        N272   1.435       .  S
C266        C267   1.399       .  A
C266        H271   1.084       .  S
C267        C268   1.412       .  A
C268        N269   1.434       .  S
N269        O273   1.263       .  A
N269        O274   1.261       .  A
N272        O275   1.263       .  A
N272        O276   1.263       .  A
C277        C278   1.404       .  A
C277        C282   1.410       .  A
C277        H284   1.083       .  S
C278        C279   1.413       .  A
C279        C280   1.397       .  A
C279        N286   1.442       .  S
C280        C281   1.402       .  A
C280        H285   1.084       .  S
C281        C282   1.417       .  A
C282        N283   1.441       .  S
N283        O287   1.263       .  A
N283        O288   1.263       .  A
N286        O289   1.263       .  A
N286        O290   1.263       .  A
C291        C292   1.403       .  A
C291        C296   1.410       .  A
C291        H298   1.083       .  S
C292        C293   1.412       .  A
C293        C294   1.396       .  A
C293        N300   1.439       .  S
C294        C295   1.404       .  A
C294        H299   1.084       .  S
C295        C296   1.420       .  A
C296        N297   1.442       .  S
N297        O301   1.263       .  A
N297        O302   1.263       .  A
N300        O303   1.263       .  A
N300        O304   1.263   1_455  A
C305        C306   1.405       .  A
C305        C310   1.407       .  A
C305        H312   1.083       .  S
C306        C307   1.416       .  A
C307        C308   1.394       .  A
C307        N314   1.434       .  S
C308        C309   1.405       .  A
C308        H313   1.083       .  S
C309        C310   1.423       .  A
C310        N311   1.438       .  S
N311        O315   1.263       .  A
N311        O316   1.262       .  A
N314        O317   1.262       .  A
N314        O318   1.263       .  A
C319        C320   1.400       .  A
C319        C324   1.398       .  A
C319        H326   1.085       .  S
C320        C321   1.413       .  A
C321        C322   1.407       .  A
C321        N328   1.440       .  S
C322        C323   1.403       .  A
C322        H327   1.084       .  S
C323        C324   1.413       .  A
C324        N325   1.439       .  S
N325        O329   1.263       .  A
N325        O330   1.261       .  A
N328        O331   1.262       .  A
N328        O332   1.263       .  A
C333        C334   1.347       .  D
C333        C390   1.493       .  S
C333        C421   1.495       .  S
C334        C479   1.508       .  S
C334        C490   1.505       .  S
C335        C336   1.349       .  D
C335       C1767   1.496       .  S
C335       C1776   1.500       .  S
C336        C392   1.503       .  S
C336        C423   1.503       .  S
C337        C338   1.343       .  D
C337       C1691   1.497       .  S
C337       C1700   1.496       .  S
C338        C341   1.500       .  S
C338        C352   1.501       .  S
C339        C340   1.413       .  A
C339        C344   1.407       .  A
C339        C652   1.471       .  S
C340        C341   1.408       .  A
C340        H345   1.083       .  S
C341        C342   1.402       .  A
C342        C343   1.402   1_545  A
C342        H346   1.083   1_545  S
C343       C1022   1.494       .  S
C343        C344   1.399   1_565  A
C344        H347   1.084   1_545  S
C348        C349   1.419       .  A
C348        C353   1.414       .  A
C348        C641   1.495       .  S
C349        C350   1.404   1_545  A
C349        H354   1.084       .  S
C350       C1022   1.494       .  S
C350        C351   1.401   1_565  A
C351        C352   1.400       .  A
C351        H355   1.083   1_545  S
C352        C353   1.398       .  A
C353        H356   1.079       .  S
C357        C358   1.344       .  D
C357        C481   1.488       .  S
C357        C488   1.492       .  S
C358       C1007   1.494       .  S
C358       C1014   1.494       .  S
C359        C360   1.411       .  A
C359        C364   1.412       .  A
C359        C624   1.476       .  S
C360        C361   1.404       .  A
C360        H365   1.083       .  S
C361        C377   1.498       .  S
C361        C362   1.403       .  A
C362        C363   1.402   1_455  A
C362        H366   1.082   1_455  S
C363       C1665   1.497       .  S
C363        C364   1.402   1_655  A
C364        H367   1.083   1_455  S
C368        C369   1.412       .  A
C368        C373   1.408       .  A
C368        C610   1.473       .  S
C369        C370   1.405       .  A
C369        H374   1.083       .  S
C370        C377   1.499       .  S
C370        C371   1.402       .  A
C371        C372   1.403   1_455  A
C371        H375   1.082   1_455  S
C372       C1665   1.496       .  S
C372        C373   1.403   1_655  A
C373        H376   1.083   1_455  S
C377        C378   1.345       .  D
C378        C381   1.494       .  S
C378        C430   1.495       .  S
C379        C380   1.414       .  A
C379        C384   1.424       .  A
C379        C596   1.500       .  S
C380        C381   1.402       .  A
C380        H385   1.083       .  S
C381        C382   1.402       .  A
C382        C383   1.401   1_545  A
C382        H386   1.082       .  S
C383       C1159   1.506       .  S
C383        C384   1.405   1_565  A
C384        H387   1.080   1_545  S
C388        C389   1.419       .  A
C388        C393   1.423       .  A
C388        C582   1.512       .  S
C389        C390   1.406       .  A
C389        H394   1.082       .  S
C390        C391   1.400       .  A
C391        C392   1.398       .  A
C391        H395   1.083       .  S
C392        C393   1.403       .  A
C393        H396   1.077       .  S
O397       Cr415   1.999       .  S
O397        C405   1.264       .  A
O398       Cr415   1.977       .  S
O398        C399   1.257       .  A
C399        C655   1.468       .  S
C399        O400   1.260       .  A
O400       Cr416   1.999   1_556  S
O401       Cr416   1.986   1_556  S
O401        C402   1.263       .  A
C402        C585   1.489       .  S
C402        O403   1.268       .  A
O403       Cr417   2.004   1_556  S
O404       Cr417   1.984   1_556  S
O404        C405   1.262       .  A
C405        C599   1.479       .  S
O406        C414   1.260       .  A
O407        C408   1.264       .  A
C408        C638   1.488       .  S
C408        O409   1.264       .  A
O410        C411   1.261       .  A
C411        C568   1.485       .  S
C411        O412   1.262       .  A
O413        C414   1.265       .  A
C414        C554   1.484       .  S
Cr415       O418   1.770       .  S
Cr416       O418   1.771   1_554  S
Cr417       O418   1.771   1_554  S
C419        C420   1.410       .  A
C419        C424   1.415       .  A
C419        C571   1.481       .  S
C420        C421   1.401       .  A
C420        H425   1.083       .  S
C421        C422   1.405       .  A
C422        C423   1.404       .  A
C422        H426   1.083       .  S
C423        C424   1.407       .  A
C424        H427   1.083       .  S
C428        C429   1.413       .  A
C428        C433   1.416       .  A
C428        C557   1.485       .  S
C429        C430   1.401       .  A
C429        H434   1.084       .  S
C430        C431   1.401       .  A
C431        C432   1.402   1_545  A
C431        H435   1.082   1_545  S
C432       C1159   1.504       .  S
C432        C433   1.407   1_565  A
C433        H436   1.082   1_545  S
C437        C438   1.407       .  A
C437        C442   1.415       .  A
C437        C540   1.477       .  S
C438        C439   1.398   1_455  A
C438        H443   1.084   1_455  S
C439       C1663   1.496       .  S
C439        C440   1.404   1_655  A
C440        C441   1.404       .  A
C440        H444   1.083       .  S
C441        C496   1.504       .  S
C441        C442   1.412       .  A
C442        H445   1.083       .  S
C446        C447   1.424       .  A
C446        C451   1.417       .  A
C446        C529   1.505       .  S
C447        C448   1.408   1_455  A
C447        H452   1.083       .  S
C448       C1663   1.500       .  S
C448        C449   1.400   1_655  A
C449        C450   1.401       .  A
C449        H453   1.083       .  S
C450        C496   1.502       .  S
C450        C451   1.399       .  A
C451        H454   1.077       .  S
O455        C463   1.262       .  A
O456        C457   1.263       .  A
C457        C613   1.475       .  S
C457        O458   1.261       .  A
O459        C460   1.261       .  A
C460        C526   1.492       .  S
C460        O461   1.263       .  A
O462        C463   1.266       .  A
C463        C512   1.493       .  S
O464       Cr473   1.994       .  S
O464        C472   1.261       .  A
O465       Cr473   1.987       .  S
O465        C466   1.262       .  A
C466        C627   1.480       .  S
C466        O467   1.265       .  A
O467       Cr474   1.995       .  S
O468       Cr474   1.982       .  S
O468        C469   1.260       .  A
C469        C543   1.470       .  S
C469        O470   1.265       .  A
O470       Cr475   2.009       .  S
O471       Cr475   1.988       .  S
O471        C472   1.264       .  A
C472        C501   1.479       .  S
Cr473       O476   1.768       .  S
Cr474       O476   1.766       .  S
Cr475       O476   1.766       .  S
C477        C478   1.426       .  A
C477        C482   1.413       .  A
C477        C498   1.504       .  S
C478        C479   1.407       .  A
C478        H483   1.079       .  S
C479        C480   1.398       .  A
C480        C481   1.400       .  A
C480        H484   1.082       .  S
C481        C482   1.399       .  A
C482        H485   1.083       .  S
C486        C487   1.416       .  A
C486        C491   1.419       .  A
C486        C515   1.497       .  S
C487        C488   1.404       .  A
C487        H492   1.083       .  S
C488        C489   1.402       .  A
C489        C490   1.401       .  A
C489        H493   1.082       .  S
C490        C491   1.405       .  A
C491        H494   1.081       .  S
C495        C496   1.349       .  D
C495       C1047   1.506       .  S
C495       C1096   1.504       .  S
C497        C498   1.408       .  A
C497        C502   1.403       .  A
C497        H504   1.079       .  S
C498        C499   1.426       .  A
C499        C500   1.401       .  A
C499        N506   1.436       .  S
C500        C501   1.398       .  A
C500        H505   1.084       .  S
C501        C502   1.416       .  A
C502        N503   1.436       .  S
N503        O507   1.262       .  A
N503        O508   1.262       .  A
N506        O509   1.263       .  A
N506        O510   1.263       .  A
C511        C512   1.406       .  A
C511        C516   1.397       .  A
C511        H518   1.083       .  S
C512        C513   1.417       .  A
C513        C514   1.408       .  A
C513        N520   1.433       .  S
C514        C515   1.410       .  A
C514        H519   1.081       .  S
C515        C516   1.418       .  A
C516        N517   1.436       .  S
N517        O521   1.263       .  A
N517        O522   1.263       .  A
N520        O523   1.263       .  A
N520        O524   1.262       .  A
C525        C526   1.404       .  A
C525        C530   1.405       .  A
C525        H532   1.084       .  S
C526        C527   1.418       .  A
C527        C528   1.399       .  A
C527        N534   1.436       .  S
C528        C529   1.407       .  A
C528        H533   1.083       .  S
C529        C530   1.424       .  A
C530        N531   1.433       .  S
N531        O535   1.261       .  A
N531        O536   1.263       .  A
N534        O537   1.262       .  A
N534        O538   1.263       .  A
C539        C540   1.401       .  A
C539        C544   1.398       .  A
C539        H546   1.085       .  S
C540        C541   1.416       .  A
C541        C542   1.410       .  A
C541        N548   1.439       .  S
C542        C543   1.402       .  A
C542        H547   1.084       .  S
C543        C544   1.409       .  A
C544        N545   1.436       .  S
N545        O549   1.263       .  A
N545        O550   1.262       .  A
N548        O551   1.262       .  A
N548        O552   1.263       .  A
C553        C554   1.407       .  A
C553        C558   1.410       .  A
C553        H560   1.084       .  S
C554        C555   1.415       .  A
C555        C556   1.398       .  A
C555        N562   1.437       .  S
C556        C557   1.403       .  A
C556        H561   1.085       .  S
C557        C558   1.417       .  A
C558        N559   1.439       .  S
N559        O563   1.263       .  A
N559        O564   1.263       .  A
N562        O565   1.263       .  A
N562        O566   1.263       .  A
C567        C568   1.406       .  A
C567        C572   1.410       .  A
C567        H574   1.084       .  S
C568        C569   1.418       .  A
C569        C570   1.398       .  A
C569        N576   1.437       .  S
C570        C571   1.399       .  A
C570        H575   1.085       .  S
C571        C572   1.417       .  A
C572        N573   1.440       .  S
N573        O577   1.263       .  A
N573        O578   1.263       .  A
N576        O579   1.263       .  A
N576        O580   1.263       .  A
C581        C582   1.415       .  A
C581        C586   1.406       .  A
C581        H588   1.077       .  S
C582        C583   1.424       .  A
C583        C584   1.399       .  A
C583        N590   1.433       .  S
C584        C585   1.403       .  A
C584        H589   1.084       .  S
C585        C586   1.413       .  A
C586        N587   1.436       .  S
N587        O591   1.262       .  A
N587        O592   1.263       .  A
N590        O593   1.263       .  A
N590        O594   1.262       .  A
C595        C596   1.408       .  A
C595        C600   1.402       .  A
C595        H602   1.080       .  S
C596        C597   1.425       .  A
C597        C598   1.403       .  A
C597        N604   1.435       .  S
C598        C599   1.399       .  A
C598        H603   1.084       .  S
C599        C600   1.412       .  A
C600        N601   1.434       .  S
N601        O605   1.263       .  A
N601        O606   1.261       .  A
N604        O607   1.263       .  A
N604        O608   1.263       .  A
C609        C610   1.404       .  A
C609        C614   1.410       .  A
C609        H616   1.083       .  S
C610        C611   1.413       .  A
C611        C612   1.397       .  A
C611        N618   1.442       .  S
C612        C613   1.402       .  A
C612        H617   1.084       .  S
C613        C614   1.417       .  A
C614        N615   1.441       .  S
N615        O619   1.263       .  A
N615        O620   1.263       .  A
N618        O621   1.263       .  A
N618        O622   1.263       .  A
C623        C624   1.403       .  A
C623        C628   1.410       .  A
C623        H630   1.083       .  S
C624        C625   1.412       .  A
C625        C626   1.396       .  A
C625        N632   1.439       .  S
C626        C627   1.404       .  A
C626        H631   1.084       .  S
C627        C628   1.420       .  A
C628        N629   1.442       .  S
N629        O633   1.263       .  A
N629        O634   1.263       .  A
N632        O635   1.263       .  A
N632        O636   1.263   1_455  A
C637        C638   1.405       .  A
C637        C642   1.407       .  A
C637        H644   1.083       .  S
C638        C639   1.416       .  A
C639        C640   1.394       .  A
C639        N646   1.434       .  S
C640        C641   1.405       .  A
C640        H645   1.083       .  S
C641        C642   1.423       .  A
C642        N643   1.438       .  S
N643        O647   1.263       .  A
N643        O648   1.262       .  A
N646        O649   1.262       .  A
N646        O650   1.263       .  A
C651        C652   1.400       .  A
C651        C656   1.398       .  A
C651        H658   1.085       .  S
C652        C653   1.413       .  A
C653        C654   1.407       .  A
C653        N660   1.440       .  S
C654        C655   1.403       .  A
C654        H659   1.084       .  S
C655        C656   1.413       .  A
C656        N657   1.439       .  S
N657        O661   1.263       .  A
N657        O662   1.261       .  A
N660        O663   1.262       .  A
N660        O664   1.263       .  A
C665        C666   1.347       .  D
C665        C722   1.493       .  S
C665        C753   1.495       .  S
C666        C811   1.508       .  S
C666        C822   1.505       .  S
C667        C668   1.349       .  D
C667       C2099   1.496       .  S
C667       C2108   1.500       .  S
C668        C724   1.503       .  S
C668        C755   1.503       .  S
C669        C670   1.343       .  D
C669       C2023   1.497       .  S
C669       C2032   1.496       .  S
C670        C673   1.500       .  S
C670        C684   1.501       .  S
C671        C672   1.413       .  A
C671        C676   1.407       .  A
C671        C984   1.471       .  S
C672        C673   1.408       .  A
C672        H677   1.083       .  S
C673        C674   1.402       .  A
C674        C675   1.402       .  A
C674        H678   1.083       .  S
C675        C676   1.399       .  A
C676        H679   1.084       .  S
C680        C681   1.419       .  A
C680        C685   1.414       .  A
C680        C973   1.495       .  S
C681        C682   1.404       .  A
C681        H686   1.084       .  S
C682        C683   1.401       .  A
C683        C684   1.400       .  A
C683        H687   1.083       .  S
C684        C685   1.398       .  A
C685        H688   1.079       .  S
C689        C690   1.344       .  D
C689        C813   1.488       .  S
C689        C820   1.492       .  S
C691        C692   1.411       .  A
C691        C696   1.412       .  A
C691        C956   1.476       .  S
C692        C693   1.404       .  A
C692        H697   1.083       .  S
C693        C709   1.498       .  S
C693        C694   1.403       .  A
C694        C695   1.402   1_455  A
C694        H698   1.082   1_455  S
C695       C1997   1.497       .  S
C695        C696   1.402   1_655  A
C696        H699   1.083   1_455  S
C700        C701   1.412       .  A
C700        C705   1.408       .  A
C700        C942   1.473       .  S
C701        C702   1.405       .  A
C701        H706   1.083       .  S
C702        C709   1.499       .  S
C702        C703   1.402       .  A
C703        C704   1.403   1_455  A
C703        H707   1.082   1_455  S
C704       C1997   1.496       .  S
C704        C705   1.403   1_655  A
C705        H708   1.083   1_455  S
C709        C710   1.345       .  D
C710        C713   1.494       .  S
C710        C762   1.495       .  S
C711        C712   1.414       .  A
C711        C716   1.424       .  A
C711        C928   1.500       .  S
C712        C713   1.402       .  A
C712        H717   1.083       .  S
C713        C714   1.402       .  A
C714        C715   1.401       .  A
C714        H718   1.082       .  S
C715        C716   1.405       .  A
C716        H719   1.080       .  S
C720        C721   1.419       .  A
C720        C725   1.423       .  A
C720        C914   1.512       .  S
C721        C722   1.406       .  A
C721        H726   1.082       .  S
C722        C723   1.400       .  A
C723        C724   1.398       .  A
C723        H727   1.083       .  S
C724        C725   1.403       .  A
C725        H728   1.077       .  S
O729       Cr747   1.999       .  S
O729        C737   1.264       .  A
O730       Cr747   1.977       .  S
O730        C731   1.257       .  A
C731        C987   1.468       .  S
C731        O732   1.260       .  A
O732       Cr748   1.999       .  S
O733       Cr748   1.986       .  S
O733        C734   1.263       .  A
C734        C917   1.489       .  S
C734        O735   1.268       .  A
O735       Cr749   2.004       .  S
O736       Cr749   1.984       .  S
O736        C737   1.262       .  A
C737        C931   1.479       .  S
O738      Cr1079   1.982   1_554  S
O738        C746   1.260       .  A
O739      Cr1079   1.995   1_554  S
O739        C740   1.264       .  A
C740        C970   1.488       .  S
C740        O741   1.264       .  A
O741      Cr1080   1.986       .  S
O742      Cr1080   1.991       .  S
O742        C743   1.261       .  A
C743        C900   1.485       .  S
C743        O744   1.262       .  A
O744      Cr1081   1.993       .  S
O745      Cr1081   2.002       .  S
O745        C746   1.265       .  A
C746        C886   1.484       .  S
Cr747      O1070   1.982       .  S
Cr747      O1071   1.995       .  S
Cr747       O750   1.770       .  S
Cr748      O1073   1.986       .  S
Cr748      O1074   1.991       .  S
Cr748       O750   1.771       .  S
Cr749      O1076   1.993       .  S
Cr749      O1077   2.002       .  S
Cr749       O750   1.771       .  S
C751        C752   1.410       .  A
C751        C756   1.415       .  A
C751        C903   1.481       .  S
C752        C753   1.401       .  A
C752        H757   1.083       .  S
C753        C754   1.405       .  A
C754        C755   1.404       .  A
C754        H758   1.083       .  S
C755        C756   1.407       .  A
C756        H759   1.083       .  S
C760        C761   1.413       .  A
C760        C765   1.416       .  A
C760        C889   1.485       .  S
C761        C762   1.401       .  A
C761        H766   1.084       .  S
C762        C763   1.401       .  A
C763        C764   1.402       .  A
C763        H767   1.082       .  S
C764        C765   1.407       .  A
C765        H768   1.082       .  S
C769        C770   1.407       .  A
C769        C774   1.415       .  A
C769        C872   1.477       .  S
C770        C771   1.398   1_455  A
C770        H775   1.084   1_455  S
C771       C1995   1.496       .  S
C771        C772   1.404   1_655  A
C772        C773   1.404       .  A
C772        H776   1.083       .  S
C773        C828   1.504       .  S
C773        C774   1.412       .  A
C774        H777   1.083       .  S
C778        C779   1.424       .  A
C778        C783   1.417       .  A
C778        C861   1.505       .  S
C779        C780   1.408   1_455  A
C779        H784   1.083       .  S
C780       C1995   1.500       .  S
C780        C781   1.400   1_655  A
C781        C782   1.401       .  A
C781        H785   1.083       .  S
C782        C828   1.502       .  S
C782        C783   1.399       .  A
C783        H786   1.077       .  S
O787      Cr1137   1.990   1_554  S
O787        C795   1.262       .  A
O788      Cr1137   1.996   1_554  S
O788        C789   1.263       .  A
C789        C945   1.475       .  S
C789        O790   1.261       .  A
O790      Cr1138   1.987   1_554  S
O791      Cr1138   1.997   1_554  S
O791        C792   1.261       .  A
C792        C858   1.492       .  S
C792        O793   1.263       .  A
O793      Cr1139   1.989   1_554  S
O794      Cr1139   1.997   1_554  S
O794        C795   1.266       .  A
C795        C844   1.493       .  S
O796       Cr805   1.994       .  S
O796        C804   1.261       .  A
O797       Cr805   1.987       .  S
O797        C798   1.262       .  A
C798        C959   1.480       .  S
C798        O799   1.265       .  A
O799       Cr806   1.995       .  S
O800       Cr806   1.982       .  S
O800        C801   1.260       .  A
C801        C875   1.470       .  S
C801        O802   1.265       .  A
O802       Cr807   2.009       .  S
O803       Cr807   1.988       .  S
O803        C804   1.264       .  A
C804        C833   1.479       .  S
Cr805      O1119   1.990       .  S
Cr805      O1120   1.996       .  S
Cr805       O808   1.768       .  S
Cr806      O1122   1.987       .  S
Cr806      O1123   1.997       .  S
Cr806       O808   1.766       .  S
Cr807      O1125   1.989       .  S
Cr807      O1126   1.997       .  S
Cr807       O808   1.766       .  S
C809        C810   1.426       .  A
C809        C814   1.413       .  A
C809        C830   1.504       .  S
C810        C811   1.407       .  A
C810        H815   1.079       .  S
C811        C812   1.398       .  A
C812        C813   1.400       .  A
C812        H816   1.082       .  S
C813        C814   1.399       .  A
C814        H817   1.083       .  S
C818        C819   1.416       .  A
C818        C823   1.419       .  A
C818        C847   1.497       .  S
C819        C820   1.404       .  A
C819        H824   1.083       .  S
C820        C821   1.402       .  A
C821        C822   1.401       .  A
C821        H825   1.082       .  S
C822        C823   1.405       .  A
C823        H826   1.081       .  S
C827        C828   1.349       .  D
C829        C830   1.408       .  A
C829        C834   1.403       .  A
C829        H836   1.079       .  S
C830        C831   1.426       .  A
C831        C832   1.401       .  A
C831        N838   1.436       .  S
C832        C833   1.398       .  A
C832        H837   1.084       .  S
C833        C834   1.416       .  A
C834        N835   1.436       .  S
N835        O839   1.262       .  A
N835        O840   1.262       .  A
N838        O841   1.263       .  A
N838        O842   1.263       .  A
C843        C844   1.406       .  A
C843        C848   1.397       .  A
C843        H850   1.083       .  S
C844        C845   1.417       .  A
C845        C846   1.408       .  A
C845        N852   1.433       .  S
C846        C847   1.410       .  A
C846        H851   1.081       .  S
C847        C848   1.418       .  A
C848        N849   1.436       .  S
N849        O853   1.263       .  A
N849        O854   1.263       .  A
N852        O855   1.263       .  A
N852        O856   1.262       .  A
C857        C858   1.404       .  A
C857        C862   1.405       .  A
C857        H864   1.084       .  S
C858        C859   1.418       .  A
C859        C860   1.399       .  A
C859        N866   1.436       .  S
C860        C861   1.407       .  A
C860        H865   1.083       .  S
C861        C862   1.424       .  A
C862        N863   1.433       .  S
N863        O867   1.261       .  A
N863        O868   1.263       .  A
N866        O869   1.262       .  A
N866        O870   1.263       .  A
C871        C872   1.401       .  A
C871        C876   1.398       .  A
C871        H878   1.085       .  S
C872        C873   1.416       .  A
C873        C874   1.410       .  A
C873        N880   1.439       .  S
C874        C875   1.402       .  A
C874        H879   1.084       .  S
C875        C876   1.409       .  A
C876        N877   1.436       .  S
N877        O881   1.263       .  A
N877        O882   1.262       .  A
N880        O883   1.262       .  A
N880        O884   1.263       .  A
C885        C886   1.407       .  A
C885        C890   1.410       .  A
C885        H892   1.084       .  S
C886        C887   1.415       .  A
C887        C888   1.398       .  A
C887        N894   1.437       .  S
C888        C889   1.403       .  A
C888        H893   1.085       .  S
C889        C890   1.417       .  A
C890        N891   1.439       .  S
N891        O895   1.263       .  A
N891        O896   1.263       .  A
N894        O897   1.263       .  A
N894        O898   1.263       .  A
C899        C900   1.406       .  A
C899        C904   1.410       .  A
C899        H906   1.084       .  S
C900        C901   1.418       .  A
C901        C902   1.398       .  A
C901        N908   1.437       .  S
C902        C903   1.399       .  A
C902        H907   1.085       .  S
C903        C904   1.417       .  A
C904        N905   1.440       .  S
N905        O909   1.263       .  A
N905        O910   1.263       .  A
N908        O911   1.263       .  A
N908        O912   1.263       .  A
C913        C914   1.415       .  A
C913        C918   1.406       .  A
C913        H920   1.077       .  S
C914        C915   1.424       .  A
C915        C916   1.399       .  A
C915        N922   1.433       .  S
C916        C917   1.403       .  A
C916        H921   1.084       .  S
C917        C918   1.413       .  A
C918        N919   1.436       .  S
N919        O923   1.262       .  A
N919        O924   1.263       .  A
N922        O925   1.263       .  A
N922        O926   1.262       .  A
C927        C928   1.408       .  A
C927        C932   1.402       .  A
C927        H934   1.080       .  S
C928        C929   1.425       .  A
C929        C930   1.403       .  A
C929        N936   1.435       .  S
C930        C931   1.399       .  A
C930        H935   1.084       .  S
C931        C932   1.412       .  A
C932        N933   1.434       .  S
N933        O937   1.263       .  A
N933        O938   1.261       .  A
N936        O939   1.263       .  A
N936        O940   1.263       .  A
C941        C942   1.404       .  A
C941        C946   1.410       .  A
C941        H948   1.083       .  S
C942        C943   1.413       .  A
C943        C944   1.397       .  A
C943        N950   1.442       .  S
C944        C945   1.402       .  A
C944        H949   1.084       .  S
C945        C946   1.417       .  A
C946        N947   1.441       .  S
N947        O951   1.263       .  A
N947        O952   1.263       .  A
N950        O953   1.263       .  A
N950        O954   1.263       .  A
C955        C956   1.403       .  A
C955        C960   1.410       .  A
C955        H962   1.083       .  S
C956        C957   1.412       .  A
C957        C958   1.396       .  A
C957        N964   1.439       .  S
C958        C959   1.404       .  A
C958        H963   1.084       .  S
C959        C960   1.420       .  A
C960        N961   1.442       .  S
N961        O965   1.263       .  A
N961        O966   1.263       .  A
N964        O967   1.263       .  A
N964        O968   1.263   1_455  A
C969        C970   1.405       .  A
C969        C974   1.407       .  A
C969        H976   1.083       .  S
C970        C971   1.416       .  A
C971        C972   1.394       .  A
C971        N978   1.434       .  S
C972        C973   1.405       .  A
C972        H977   1.083       .  S
C973        C974   1.423       .  A
C974        N975   1.438       .  S
N975        O979   1.263       .  A
N975        O980   1.262       .  A
N978        O981   1.262       .  A
N978        O982   1.263       .  A
C983        C984   1.400       .  A
C983        C988   1.398       .  A
C983        H990   1.085       .  S
C984        C985   1.413       .  A
C985        C986   1.407       .  A
C985        N992   1.440       .  S
C986        C987   1.403       .  A
C986        H991   1.084       .  S
C987        C988   1.413       .  A
C988        N989   1.439       .  S
N989        O993   1.263       .  A
N989        O994   1.261       .  A
N992        O995   1.262       .  A
N992        O996   1.263       .  A
C997        C998   1.347       .  D
C997       C1054   1.493       .  S
C997       C1085   1.495       .  S
C998       C1143   1.508       .  S
C998       C1154   1.505       .  S
C999       C1000   1.349       .  D
C999       C2431   1.496       .  S
C999       C2440   1.500       .  S
C1000      C1056   1.503       .  S
C1000      C1087   1.503       .  S
C1001      C1002   1.343       .  D
C1001      C2355   1.497       .  S
C1001      C2364   1.496       .  S
C1002      C1005   1.500       .  S
C1002      C1016   1.501       .  S
C1003      C1004   1.413       .  A
C1003      C1008   1.407       .  A
C1003      C1316   1.471       .  S
C1004      C1005   1.408       .  A
C1004      H1009   1.083       .  S
C1005      C1006   1.402       .  A
C1006      C1007   1.402       .  A
C1006      H1010   1.083       .  S
C1007      C1008   1.399       .  A
C1008      H1011   1.084       .  S
C1012      C1013   1.419       .  A
C1012      C1017   1.414       .  A
C1012      C1305   1.495       .  S
C1013      C1014   1.404       .  A
C1013      H1018   1.084       .  S
C1014      C1015   1.401       .  A
C1015      C1016   1.400       .  A
C1015      H1019   1.083       .  S
C1016      C1017   1.398       .  A
C1017      H1020   1.079       .  S
C1021      C1022   1.344       .  D
C1021      C1145   1.488       .  S
C1021      C1152   1.492       .  S
C1023      C1024   1.411       .  A
C1023      C1028   1.412       .  A
C1023      C1288   1.476       .  S
C1024      C1025   1.404       .  A
C1024      H1029   1.083       .  S
C1025      C1041   1.498       .  S
C1025      C1026   1.403       .  A
C1026      C1027   1.402   1_455  A
C1026      H1030   1.082   1_455  S
C1027      C2329   1.497       .  S
C1027      C1028   1.402   1_655  A
C1028      H1031   1.083   1_455  S
C1032      C1033   1.412       .  A
C1032      C1037   1.408       .  A
C1032      C1274   1.473       .  S
C1033      C1034   1.405       .  A
C1033      H1038   1.083       .  S
C1034      C1041   1.499       .  S
C1034      C1035   1.402       .  A
C1035      C1036   1.403   1_455  A
C1035      H1039   1.082   1_455  S
C1036      C2329   1.496       .  S
C1036      C1037   1.403   1_655  A
C1037      H1040   1.083   1_455  S
C1041      C1042   1.345       .  D
C1042      C1045   1.494       .  S
C1042      C1094   1.495       .  S
C1043      C1044   1.414       .  A
C1043      C1048   1.424       .  A
C1043      C1260   1.500       .  S
C1044      C1045   1.402       .  A
C1044      H1049   1.083       .  S
C1045      C1046   1.402       .  A
C1046      C1047   1.401       .  A
C1046      H1050   1.082       .  S
C1047      C1048   1.405       .  A
C1048      H1051   1.080       .  S
C1052      C1053   1.419       .  A
C1052      C1057   1.423       .  A
C1052      C1246   1.512       .  S
C1053      C1054   1.406       .  A
C1053      H1058   1.082       .  S
C1054      C1055   1.400       .  A
C1055      C1056   1.398       .  A
C1055      H1059   1.083       .  S
C1056      C1057   1.403       .  A
C1057      H1060   1.077       .  S
O1061     Cr1079   1.999       .  S
O1061      C1069   1.264       .  A
O1062     Cr1079   1.977       .  S
O1062      C1063   1.257       .  A
C1063      C1319   1.468       .  S
C1063      O1064   1.260       .  A
O1064     Cr1080   1.999   1_556  S
O1065     Cr1080   1.986   1_556  S
O1065      C1066   1.263       .  A
C1066      C1249   1.489       .  S
C1066      O1067   1.268       .  A
O1067     Cr1081   2.004   1_556  S
O1068     Cr1081   1.984   1_556  S
O1068      C1069   1.262       .  A
C1069      C1263   1.479       .  S
O1070      C1078   1.260       .  A
O1071      C1072   1.264       .  A
C1072      C1302   1.488       .  S
C1072      O1073   1.264       .  A
O1074      C1075   1.261       .  A
C1075      C1232   1.485       .  S
C1075      O1076   1.262       .  A
O1077      C1078   1.265       .  A
C1078      C1218   1.484       .  S
Cr1079     O1082   1.770       .  S
Cr1080     O1082   1.771   1_554  S
Cr1081     O1082   1.771   1_554  S
C1083      C1084   1.410       .  A
C1083      C1088   1.415       .  A
C1083      C1235   1.481       .  S
C1084      C1085   1.401       .  A
C1084      H1089   1.083       .  S
C1085      C1086   1.405       .  A
C1086      C1087   1.404       .  A
C1086      H1090   1.083       .  S
C1087      C1088   1.407       .  A
C1088      H1091   1.083       .  S
C1092      C1093   1.413       .  A
C1092      C1097   1.416       .  A
C1092      C1221   1.485       .  S
C1093      C1094   1.401       .  A
C1093      H1098   1.084       .  S
C1094      C1095   1.401       .  A
C1095      C1096   1.402       .  A
C1095      H1099   1.082       .  S
C1096      C1097   1.407       .  A
C1097      H1100   1.082       .  S
C1101      C1102   1.407       .  A
C1101      C1106   1.415       .  A
C1101      C1204   1.477       .  S
C1102      C1103   1.398   1_455  A
C1102      H1107   1.084   1_455  S
C1103      C2327   1.496       .  S
C1103      C1104   1.404   1_655  A
C1104      C1105   1.404       .  A
C1104      H1108   1.083       .  S
C1105      C1160   1.504       .  S
C1105      C1106   1.412       .  A
C1106      H1109   1.083       .  S
C1110      C1111   1.424       .  A
C1110      C1115   1.417       .  A
C1110      C1193   1.505       .  S
C1111      C1112   1.408   1_455  A
C1111      H1116   1.083       .  S
C1112      C2327   1.500       .  S
C1112      C1113   1.400   1_655  A
C1113      C1114   1.401       .  A
C1113      H1117   1.083       .  S
C1114      C1160   1.502       .  S
C1114      C1115   1.399       .  A
C1115      H1118   1.077       .  S
O1119      C1127   1.262       .  A
O1120      C1121   1.263       .  A
C1121      C1277   1.475       .  S
C1121      O1122   1.261       .  A
O1123      C1124   1.261       .  A
C1124      C1190   1.492       .  S
C1124      O1125   1.263       .  A
O1126      C1127   1.266       .  A
C1127      C1176   1.493       .  S
O1128     Cr1137   1.994       .  S
O1128      C1136   1.261       .  A
O1129     Cr1137   1.987       .  S
O1129      C1130   1.262       .  A
C1130      C1291   1.480       .  S
C1130      O1131   1.265       .  A
O1131     Cr1138   1.995       .  S
O1132     Cr1138   1.982       .  S
O1132      C1133   1.260       .  A
C1133      C1207   1.470       .  S
C1133      O1134   1.265       .  A
O1134     Cr1139   2.009       .  S
O1135     Cr1139   1.988       .  S
O1135      C1136   1.264       .  A
C1136      C1165   1.479       .  S
Cr1137     O1140   1.768       .  S
Cr1138     O1140   1.766       .  S
Cr1139     O1140   1.766       .  S
C1141      C1142   1.426       .  A
C1141      C1146   1.413       .  A
C1141      C1162   1.504       .  S
C1142      C1143   1.407       .  A
C1142      H1147   1.079       .  S
C1143      C1144   1.398       .  A
C1144      C1145   1.400       .  A
C1144      H1148   1.082       .  S
C1145      C1146   1.399       .  A
C1146      H1149   1.083       .  S
C1150      C1151   1.416       .  A
C1150      C1155   1.419       .  A
C1150      C1179   1.497       .  S
C1151      C1152   1.404       .  A
C1151      H1156   1.083       .  S
C1152      C1153   1.402       .  A
C1153      C1154   1.401       .  A
C1153      H1157   1.082       .  S
C1154      C1155   1.405       .  A
C1155      H1158   1.081       .  S
C1159      C1160   1.349       .  D
C1161      C1162   1.408       .  A
C1161      C1166   1.403       .  A
C1161      H1168   1.079       .  S
C1162      C1163   1.426       .  A
C1163      C1164   1.401       .  A
C1163      N1170   1.436       .  S
C1164      C1165   1.398       .  A
C1164      H1169   1.084       .  S
C1165      C1166   1.416       .  A
C1166      N1167   1.436       .  S
N1167      O1171   1.262       .  A
N1167      O1172   1.262       .  A
N1170      O1173   1.263       .  A
N1170      O1174   1.263       .  A
C1175      C1176   1.406       .  A
C1175      C1180   1.397       .  A
C1175      H1182   1.083       .  S
C1176      C1177   1.417       .  A
C1177      C1178   1.408       .  A
C1177      N1184   1.433       .  S
C1178      C1179   1.410       .  A
C1178      H1183   1.081       .  S
C1179      C1180   1.418       .  A
C1180      N1181   1.436       .  S
N1181      O1185   1.263       .  A
N1181      O1186   1.263       .  A
N1184      O1187   1.263       .  A
N1184      O1188   1.262       .  A
C1189      C1190   1.404       .  A
C1189      C1194   1.405       .  A
C1189      H1196   1.084       .  S
C1190      C1191   1.418       .  A
C1191      C1192   1.399       .  A
C1191      N1198   1.436       .  S
C1192      C1193   1.407       .  A
C1192      H1197   1.083       .  S
C1193      C1194   1.424       .  A
C1194      N1195   1.433       .  S
N1195      O1199   1.261       .  A
N1195      O1200   1.263       .  A
N1198      O1201   1.262       .  A
N1198      O1202   1.263       .  A
C1203      C1204   1.401       .  A
C1203      C1208   1.398       .  A
C1203      H1210   1.085       .  S
C1204      C1205   1.416       .  A
C1205      C1206   1.410       .  A
C1205      N1212   1.439       .  S
C1206      C1207   1.402       .  A
C1206      H1211   1.084       .  S
C1207      C1208   1.409       .  A
C1208      N1209   1.436       .  S
N1209      O1213   1.263       .  A
N1209      O1214   1.262       .  A
N1212      O1215   1.262       .  A
N1212      O1216   1.263       .  A
C1217      C1218   1.407       .  A
C1217      C1222   1.410       .  A
C1217      H1224   1.084       .  S
C1218      C1219   1.415       .  A
C1219      C1220   1.398       .  A
C1219      N1226   1.437       .  S
C1220      C1221   1.403       .  A
C1220      H1225   1.085       .  S
C1221      C1222   1.417       .  A
C1222      N1223   1.439       .  S
N1223      O1227   1.263       .  A
N1223      O1228   1.263       .  A
N1226      O1229   1.263       .  A
N1226      O1230   1.263       .  A
C1231      C1232   1.406       .  A
C1231      C1236   1.410       .  A
C1231      H1238   1.084       .  S
C1232      C1233   1.418       .  A
C1233      C1234   1.398       .  A
C1233      N1240   1.437       .  S
C1234      C1235   1.399       .  A
C1234      H1239   1.085       .  S
C1235      C1236   1.417       .  A
C1236      N1237   1.440       .  S
N1237      O1241   1.263       .  A
N1237      O1242   1.263       .  A
N1240      O1243   1.263       .  A
N1240      O1244   1.263       .  A
C1245      C1246   1.415       .  A
C1245      C1250   1.406       .  A
C1245      H1252   1.077       .  S
C1246      C1247   1.424       .  A
C1247      C1248   1.399       .  A
C1247      N1254   1.433       .  S
C1248      C1249   1.403       .  A
C1248      H1253   1.084       .  S
C1249      C1250   1.413       .  A
C1250      N1251   1.436       .  S
N1251      O1255   1.262       .  A
N1251      O1256   1.263       .  A
N1254      O1257   1.263       .  A
N1254      O1258   1.262       .  A
C1259      C1260   1.408       .  A
C1259      C1264   1.402       .  A
C1259      H1266   1.080       .  S
C1260      C1261   1.425       .  A
C1261      C1262   1.403       .  A
C1261      N1268   1.435       .  S
C1262      C1263   1.399       .  A
C1262      H1267   1.084       .  S
C1263      C1264   1.412       .  A
C1264      N1265   1.434       .  S
N1265      O1269   1.263       .  A
N1265      O1270   1.261       .  A
N1268      O1271   1.263       .  A
N1268      O1272   1.263       .  A
C1273      C1274   1.404       .  A
C1273      C1278   1.410       .  A
C1273      H1280   1.083       .  S
C1274      C1275   1.413       .  A
C1275      C1276   1.397       .  A
C1275      N1282   1.442       .  S
C1276      C1277   1.402       .  A
C1276      H1281   1.084       .  S
C1277      C1278   1.417       .  A
C1278      N1279   1.441       .  S
N1279      O1283   1.263       .  A
N1279      O1284   1.263       .  A
N1282      O1285   1.263       .  A
N1282      O1286   1.263       .  A
C1287      C1288   1.403       .  A
C1287      C1292   1.410       .  A
C1287      H1294   1.083       .  S
C1288      C1289   1.412       .  A
C1289      C1290   1.396       .  A
C1289      N1296   1.439       .  S
C1290      C1291   1.404       .  A
C1290      H1295   1.084       .  S
C1291      C1292   1.420       .  A
C1292      N1293   1.442       .  S
N1293      O1297   1.263       .  A
N1293      O1298   1.263       .  A
N1296      O1299   1.263       .  A
N1296      O1300   1.263   1_455  A
C1301      C1302   1.405       .  A
C1301      C1306   1.407       .  A
C1301      H1308   1.083       .  S
C1302      C1303   1.416       .  A
C1303      C1304   1.394       .  A
C1303      N1310   1.434       .  S
C1304      C1305   1.405       .  A
C1304      H1309   1.083       .  S
C1305      C1306   1.423       .  A
C1306      N1307   1.438       .  S
N1307      O1311   1.263       .  A
N1307      O1312   1.262       .  A
N1310      O1313   1.262       .  A
N1310      O1314   1.263       .  A
C1315      C1316   1.400       .  A
C1315      C1320   1.398       .  A
C1315      H1322   1.085       .  S
C1316      C1317   1.413       .  A
C1317      C1318   1.407       .  A
C1317      N1324   1.440       .  S
C1318      C1319   1.403       .  A
C1318      H1323   1.084       .  S
C1319      C1320   1.413       .  A
C1320      N1321   1.439       .  S
N1321      O1325   1.263       .  A
N1321      O1326   1.261       .  A
N1324      O1327   1.262       .  A
N1324      O1328   1.263       .  A
C1329      C1330   1.347       .  D
C1329      C1386   1.493       .  S
C1329      C1417   1.495       .  S
C1330      C1475   1.508       .  S
C1330      C1486   1.505       .  S
C1331      C1332   1.349       .  D
C1332      C1388   1.503       .  S
C1332      C1419   1.503       .  S
C1333      C1334   1.343       .  D
C1334      C1337   1.500       .  S
C1334      C1348   1.501       .  S
C1335      C1336   1.413       .  A
C1335      C1340   1.407       .  A
C1335      C1648   1.471       .  S
C1336      C1337   1.408       .  A
C1336      H1341   1.083       .  S
C1337      C1338   1.402       .  A
C1338      C1339   1.402   1_545  A
C1338      H1342   1.083   1_545  S
C1339      C2018   1.494       .  S
C1339      C1340   1.399   1_565  A
C1340      H1343   1.084   1_545  S
C1344      C1345   1.419       .  A
C1344      C1349   1.414       .  A
C1344      C1637   1.495       .  S
C1345      C1346   1.404   1_545  A
C1345      H1350   1.084       .  S
C1346      C2018   1.494       .  S
C1346      C1347   1.401   1_565  A
C1347      C1348   1.400       .  A
C1347      H1351   1.083   1_545  S
C1348      C1349   1.398       .  A
C1349      H1352   1.079       .  S
C1353      C1354   1.344       .  D
C1353      C1477   1.488       .  S
C1353      C1484   1.492       .  S
C1354      C2003   1.494       .  S
C1354      C2010   1.494       .  S
C1355      C1356   1.411       .  A
C1355      C1360   1.412       .  A
C1355      C1620   1.476       .  S
C1356      C1357   1.404       .  A
C1356      H1361   1.083       .  S
C1357      C1373   1.498       .  S
C1357      C1358   1.403       .  A
C1358      C1359   1.402       .  A
C1358      H1362   1.082       .  S
C1359      C1360   1.402       .  A
C1360      H1363   1.083       .  S
C1364      C1365   1.412       .  A
C1364      C1369   1.408       .  A
C1364      C1606   1.473       .  S
C1365      C1366   1.405       .  A
C1365      H1370   1.083       .  S
C1366      C1373   1.499       .  S
C1366      C1367   1.402       .  A
C1367      C1368   1.403       .  A
C1367      H1371   1.082       .  S
C1368      C1369   1.403       .  A
C1369      H1372   1.083       .  S
C1373      C1374   1.345       .  D
C1374      C1377   1.494       .  S
C1374      C1426   1.495       .  S
C1375      C1376   1.414       .  A
C1375      C1380   1.424       .  A
C1375      C1592   1.500       .  S
C1376      C1377   1.402       .  A
C1376      H1381   1.083       .  S
C1377      C1378   1.402       .  A
C1378      C1379   1.401   1_545  A
C1378      H1382   1.082       .  S
C1379      C2155   1.506       .  S
C1379      C1380   1.405   1_565  A
C1380      H1383   1.080   1_545  S
C1384      C1385   1.419       .  A
C1384      C1389   1.423       .  A
C1384      C1578   1.512       .  S
C1385      C1386   1.406       .  A
C1385      H1390   1.082       .  S
C1386      C1387   1.400       .  A
C1387      C1388   1.398       .  A
C1387      H1391   1.083       .  S
C1388      C1389   1.403       .  A
C1389      H1392   1.077       .  S
O1393     Cr1411   1.999       .  S
O1393      C1401   1.264       .  A
O1394     Cr1411   1.977       .  S
O1394      C1395   1.257       .  A
C1395      C1651   1.468       .  S
C1395      O1396   1.260       .  A
O1396     Cr1412   1.999       .  S
O1397     Cr1412   1.986       .  S
O1397      C1398   1.263       .  A
C1398      C1581   1.489       .  S
C1398      O1399   1.268       .  A
O1399     Cr1413   2.004       .  S
O1400     Cr1413   1.984       .  S
O1400      C1401   1.262       .  A
C1401      C1595   1.479       .  S
O1402     Cr1743   1.982   1_554  S
O1402      C1410   1.260       .  A
O1403     Cr1743   1.995   1_554  S
O1403      C1404   1.264       .  A
C1404      C1634   1.488       .  S
C1404      O1405   1.264       .  A
O1405     Cr1744   1.986       .  S
O1406     Cr1744   1.991       .  S
O1406      C1407   1.261       .  A
C1407      C1564   1.485       .  S
C1407      O1408   1.262       .  A
O1408     Cr1745   1.993       .  S
O1409     Cr1745   2.001       .  S
O1409      C1410   1.265       .  A
C1410      C1550   1.484       .  S
Cr1411     O1734   1.982       .  S
Cr1411     O1735   1.995       .  S
Cr1411     O1414   1.770       .  S
Cr1412     O1737   1.986       .  S
Cr1412     O1738   1.991       .  S
Cr1412     O1414   1.771       .  S
Cr1413     O1740   1.993       .  S
Cr1413     O1741   2.001       .  S
Cr1413     O1414   1.771       .  S
C1415      C1416   1.410       .  A
C1415      C1420   1.415       .  A
C1415      C1567   1.481       .  S
C1416      C1417   1.401       .  A
C1416      H1421   1.083       .  S
C1417      C1418   1.405       .  A
C1418      C1419   1.404       .  A
C1418      H1422   1.083       .  S
C1419      C1420   1.407       .  A
C1420      H1423   1.083       .  S
C1424      C1425   1.413       .  A
C1424      C1429   1.416       .  A
C1424      C1553   1.485       .  S
C1425      C1426   1.401       .  A
C1425      H1430   1.084       .  S
C1426      C1427   1.401       .  A
C1427      C1428   1.402   1_545  A
C1427      H1431   1.082   1_545  S
C1428      C2155   1.504       .  S
C1428      C1429   1.407   1_565  A
C1429      H1432   1.082   1_545  S
C1433      C1434   1.407       .  A
C1433      C1438   1.415       .  A
C1433      C1536   1.477       .  S
C1434      C1435   1.398       .  A
C1434      H1439   1.084       .  S
C1435      C1436   1.404       .  A
C1436      C1437   1.404       .  A
C1436      H1440   1.083       .  S
C1437      C1492   1.504       .  S
C1437      C1438   1.412       .  A
C1438      H1441   1.083       .  S
C1442      C1443   1.424       .  A
C1442      C1447   1.417       .  A
C1442      C1525   1.505       .  S
C1443      C1444   1.408       .  A
C1443      H1448   1.083       .  S
C1444      C1445   1.400       .  A
C1445      C1446   1.401       .  A
C1445      H1449   1.083       .  S
C1446      C1492   1.502       .  S
C1446      C1447   1.399       .  A
C1447      H1450   1.077       .  S
O1451     Cr1801   1.990   1_554  S
O1451      C1459   1.262       .  A
O1452     Cr1801   1.996   1_554  S
O1452      C1453   1.263       .  A
C1453      C1609   1.475       .  S
C1453      O1454   1.261       .  A
O1454     Cr1802   1.987   1_554  S
O1455     Cr1802   1.997   1_554  S
O1455      C1456   1.261       .  A
C1456      C1522   1.492       .  S
C1456      O1457   1.263       .  A
O1457     Cr1803   1.989   1_554  S
O1458     Cr1803   1.997   1_554  S
O1458      C1459   1.266       .  A
C1459      C1508   1.493       .  S
O1460     Cr1469   1.994       .  S
O1460      C1468   1.261       .  A
O1461     Cr1469   1.987       .  S
O1461      C1462   1.262       .  A
C1462      C1623   1.480       .  S
C1462      O1463   1.265       .  A
O1463     Cr1470   1.995       .  S
O1464     Cr1470   1.982       .  S
O1464      C1465   1.260       .  A
C1465      C1539   1.470       .  S
C1465      O1466   1.265       .  A
O1466     Cr1471   2.009       .  S
O1467     Cr1471   1.988       .  S
O1467      C1468   1.264       .  A
C1468      C1497   1.479       .  S
Cr1469     O1783   1.990       .  S
Cr1469     O1784   1.996       .  S
Cr1469     O1472   1.768       .  S
Cr1470     O1786   1.987       .  S
Cr1470     O1787   1.997       .  S
Cr1470     O1472   1.766       .  S
Cr1471     O1789   1.989       .  S
Cr1471     O1790   1.997       .  S
Cr1471     O1472   1.766       .  S
C1473      C1474   1.426       .  A
C1473      C1478   1.413       .  A
C1473      C1494   1.504       .  S
C1474      C1475   1.407       .  A
C1474      H1479   1.079       .  S
C1475      C1476   1.398       .  A
C1476      C1477   1.400       .  A
C1476      H1480   1.082       .  S
C1477      C1478   1.399       .  A
C1478      H1481   1.083       .  S
C1482      C1483   1.416       .  A
C1482      C1487   1.419       .  A
C1482      C1511   1.497       .  S
C1483      C1484   1.404       .  A
C1483      H1488   1.083       .  S
C1484      C1485   1.402       .  A
C1485      C1486   1.401       .  A
C1485      H1489   1.082       .  S
C1486      C1487   1.405       .  A
C1487      H1490   1.081       .  S
C1491      C1492   1.349       .  D
C1491      C2043   1.506       .  S
C1491      C2092   1.504       .  S
C1493      C1494   1.408       .  A
C1493      C1498   1.403       .  A
C1493      H1500   1.079       .  S
C1494      C1495   1.426       .  A
C1495      C1496   1.401       .  A
C1495      N1502   1.436       .  S
C1496      C1497   1.398       .  A
C1496      H1501   1.084       .  S
C1497      C1498   1.416       .  A
C1498      N1499   1.436       .  S
N1499      O1503   1.262       .  A
N1499      O1504   1.262       .  A
N1502      O1505   1.263       .  A
N1502      O1506   1.263       .  A
C1507      C1508   1.406       .  A
C1507      C1512   1.397       .  A
C1507      H1514   1.083       .  S
C1508      C1509   1.417       .  A
C1509      C1510   1.408       .  A
C1509      N1516   1.433       .  S
C1510      C1511   1.410       .  A
C1510      H1515   1.081       .  S
C1511      C1512   1.418       .  A
C1512      N1513   1.436       .  S
N1513      O1517   1.263       .  A
N1513      O1518   1.263       .  A
N1516      O1519   1.263       .  A
N1516      O1520   1.262       .  A
C1521      C1522   1.404       .  A
C1521      C1526   1.405       .  A
C1521      H1528   1.084       .  S
C1522      C1523   1.418       .  A
C1523      C1524   1.399       .  A
C1523      N1530   1.436       .  S
C1524      C1525   1.407       .  A
C1524      H1529   1.083       .  S
C1525      C1526   1.424       .  A
C1526      N1527   1.433       .  S
N1527      O1531   1.261       .  A
N1527      O1532   1.263       .  A
N1530      O1533   1.262       .  A
N1530      O1534   1.263       .  A
C1535      C1536   1.401       .  A
C1535      C1540   1.398       .  A
C1535      H1542   1.085       .  S
C1536      C1537   1.416       .  A
C1537      C1538   1.410       .  A
C1537      N1544   1.439       .  S
C1538      C1539   1.402       .  A
C1538      H1543   1.084       .  S
C1539      C1540   1.409       .  A
C1540      N1541   1.436       .  S
N1541      O1545   1.263       .  A
N1541      O1546   1.262       .  A
N1544      O1547   1.262       .  A
N1544      O1548   1.263       .  A
C1549      C1550   1.407       .  A
C1549      C1554   1.410       .  A
C1549      H1556   1.084       .  S
C1550      C1551   1.415       .  A
C1551      C1552   1.398       .  A
C1551      N1558   1.437       .  S
C1552      C1553   1.403       .  A
C1552      H1557   1.085       .  S
C1553      C1554   1.417       .  A
C1554      N1555   1.439       .  S
N1555      O1559   1.263       .  A
N1555      O1560   1.263       .  A
N1558      O1561   1.263       .  A
N1558      O1562   1.263       .  A
C1563      C1564   1.406       .  A
C1563      C1568   1.410       .  A
C1563      H1570   1.084       .  S
C1564      C1565   1.418       .  A
C1565      C1566   1.398       .  A
C1565      N1572   1.437       .  S
C1566      C1567   1.399       .  A
C1566      H1571   1.085       .  S
C1567      C1568   1.417       .  A
C1568      N1569   1.440       .  S
N1569      O1573   1.263       .  A
N1569      O1574   1.263       .  A
N1572      O1575   1.263       .  A
N1572      O1576   1.263       .  A
C1577      C1578   1.415       .  A
C1577      C1582   1.406       .  A
C1577      H1584   1.077       .  S
C1578      C1579   1.424       .  A
C1579      C1580   1.399       .  A
C1579      N1586   1.433       .  S
C1580      C1581   1.403       .  A
C1580      H1585   1.084       .  S
C1581      C1582   1.413       .  A
C1582      N1583   1.436       .  S
N1583      O1587   1.262       .  A
N1583      O1588   1.263       .  A
N1586      O1589   1.263       .  A
N1586      O1590   1.262       .  A
C1591      C1592   1.408       .  A
C1591      C1596   1.402       .  A
C1591      H1598   1.080       .  S
C1592      C1593   1.425       .  A
C1593      C1594   1.403       .  A
C1593      N1600   1.435       .  S
C1594      C1595   1.399       .  A
C1594      H1599   1.084       .  S
C1595      C1596   1.412       .  A
C1596      N1597   1.434       .  S
N1597      O1601   1.263       .  A
N1597      O1602   1.261       .  A
N1600      O1603   1.263       .  A
N1600      O1604   1.263       .  A
C1605      C1606   1.404       .  A
C1605      C1610   1.410       .  A
C1605      H1612   1.083       .  S
C1606      C1607   1.413       .  A
C1607      C1608   1.397       .  A
C1607      N1614   1.442       .  S
C1608      C1609   1.402       .  A
C1608      H1613   1.084       .  S
C1609      C1610   1.417       .  A
C1610      N1611   1.441       .  S
N1611      O1615   1.263       .  A
N1611      O1616   1.263       .  A
N1614      O1617   1.263       .  A
N1614      O1618   1.263       .  A
C1619      C1620   1.403       .  A
C1619      C1624   1.410       .  A
C1619      H1626   1.083       .  S
C1620      C1621   1.412       .  A
C1621      C1622   1.396       .  A
C1621      N1628   1.439       .  S
C1622      C1623   1.404       .  A
C1622      H1627   1.084       .  S
C1623      C1624   1.420       .  A
C1624      N1625   1.442       .  S
N1625      O1629   1.263       .  A
N1625      O1630   1.263       .  A
N1628      O1631   1.263       .  A
N1628      O1632   1.263       .  A
C1633      C1634   1.405       .  A
C1633      C1638   1.407       .  A
C1633      H1640   1.083       .  S
C1634      C1635   1.416       .  A
C1635      C1636   1.394       .  A
C1635      N1642   1.434       .  S
C1636      C1637   1.405       .  A
C1636      H1641   1.083       .  S
C1637      C1638   1.423       .  A
C1638      N1639   1.438       .  S
N1639      O1643   1.263       .  A
N1639      O1644   1.262       .  A
N1642      O1645   1.262       .  A
N1642      O1646   1.263       .  A
C1647      C1648   1.400       .  A
C1647      C1652   1.398       .  A
C1647      H1654   1.085       .  S
C1648      C1649   1.413       .  A
C1649      C1650   1.407       .  A
C1649      N1656   1.440       .  S
C1650      C1651   1.403       .  A
C1650      H1655   1.084       .  S
C1651      C1652   1.413       .  A
C1652      N1653   1.439       .  S
N1653      O1657   1.263       .  A
N1653      O1658   1.261       .  A
N1656      O1659   1.262       .  A
N1656      O1660   1.263       .  A
C1661      C1662   1.347       .  D
C1661      C1718   1.493       .  S
C1661      C1749   1.495       .  S
C1662      C1807   1.508       .  S
C1662      C1818   1.505       .  S
C1663      C1664   1.349       .  D
C1664      C1720   1.503       .  S
C1664      C1751   1.503       .  S
C1665      C1666   1.343       .  D
C1666      C1669   1.500       .  S
C1666      C1680   1.501       .  S
C1667      C1668   1.413       .  A
C1667      C1672   1.407       .  A
C1667      C1980   1.471       .  S
C1668      C1669   1.408       .  A
C1668      H1673   1.083       .  S
C1669      C1670   1.402       .  A
C1670      C1671   1.402   1_545  A
C1670      H1674   1.083   1_545  S
C1671      C2350   1.494       .  S
C1671      C1672   1.399   1_565  A
C1672      H1675   1.084   1_545  S
C1676      C1677   1.419       .  A
C1676      C1681   1.414       .  A
C1676      C1969   1.495       .  S
C1677      C1678   1.404   1_545  A
C1677      H1682   1.084       .  S
C1678      C2350   1.494       .  S
C1678      C1679   1.401   1_565  A
C1679      C1680   1.400       .  A
C1679      H1683   1.083   1_545  S
C1680      C1681   1.398       .  A
C1681      H1684   1.079       .  S
C1685      C1686   1.344       .  D
C1685      C1809   1.488       .  S
C1685      C1816   1.492       .  S
C1686      C2335   1.494       .  S
C1686      C2342   1.494       .  S
C1687      C1688   1.411       .  A
C1687      C1692   1.412       .  A
C1687      C1952   1.476       .  S
C1688      C1689   1.404       .  A
C1688      H1693   1.083       .  S
C1689      C1705   1.498       .  S
C1689      C1690   1.403       .  A
C1690      C1691   1.402       .  A
C1690      H1694   1.082       .  S
C1691      C1692   1.402       .  A
C1692      H1695   1.083       .  S
C1696      C1697   1.412       .  A
C1696      C1701   1.408       .  A
C1696      C1938   1.473       .  S
C1697      C1698   1.405       .  A
C1697      H1702   1.083       .  S
C1698      C1705   1.499       .  S
C1698      C1699   1.402       .  A
C1699      C1700   1.403       .  A
C1699      H1703   1.082       .  S
C1700      C1701   1.403       .  A
C1701      H1704   1.083       .  S
C1705      C1706   1.345       .  D
C1706      C1709   1.494       .  S
C1706      C1758   1.495       .  S
C1707      C1708   1.414       .  A
C1707      C1712   1.424       .  A
C1707      C1924   1.500       .  S
C1708      C1709   1.402       .  A
C1708      H1713   1.083       .  S
C1709      C1710   1.402       .  A
C1710      C1711   1.401   1_545  A
C1710      H1714   1.082       .  S
C1711      C2487   1.506       .  S
C1711      C1712   1.405   1_565  A
C1712      H1715   1.080   1_545  S
C1716      C1717   1.419       .  A
C1716      C1721   1.423       .  A
C1716      C1910   1.512       .  S
C1717      C1718   1.406       .  A
C1717      H1722   1.082       .  S
C1718      C1719   1.400       .  A
C1719      C1720   1.398       .  A
C1719      H1723   1.083       .  S
C1720      C1721   1.403       .  A
C1721      H1724   1.077       .  S
O1725     Cr1743   1.999       .  S
O1725      C1733   1.264       .  A
O1726     Cr1743   1.977       .  S
O1726      C1727   1.257       .  A
C1727      C1983   1.468       .  S
C1727      O1728   1.260       .  A
O1728     Cr1744   1.999   1_556  S
O1729     Cr1744   1.986   1_556  S
O1729      C1730   1.263       .  A
C1730      C1913   1.489       .  S
C1730      O1731   1.268       .  A
O1731     Cr1745   2.004   1_556  S
O1732     Cr1745   1.984   1_556  S
O1732      C1733   1.262       .  A
C1733      C1927   1.479       .  S
O1734      C1742   1.260       .  A
O1735      C1736   1.264       .  A
C1736      C1966   1.488       .  S
C1736      O1737   1.264       .  A
O1738      C1739   1.261       .  A
C1739      C1896   1.485       .  S
C1739      O1740   1.262       .  A
O1741      C1742   1.265       .  A
C1742      C1882   1.484       .  S
Cr1743     O1746   1.770       .  S
Cr1744     O1746   1.771   1_554  S
Cr1745     O1746   1.771   1_554  S
C1747      C1748   1.410       .  A
C1747      C1752   1.415       .  A
C1747      C1899   1.481       .  S
C1748      C1749   1.401       .  A
C1748      H1753   1.083       .  S
C1749      C1750   1.405       .  A
C1750      C1751   1.404       .  A
C1750      H1754   1.083       .  S
C1751      C1752   1.407       .  A
C1752      H1755   1.083       .  S
C1756      C1757   1.413       .  A
C1756      C1761   1.416       .  A
C1756      C1885   1.485       .  S
C1757      C1758   1.401       .  A
C1757      H1762   1.084       .  S
C1758      C1759   1.401       .  A
C1759      C1760   1.402   1_545  A
C1759      H1763   1.082   1_545  S
C1760      C2487   1.504       .  S
C1760      C1761   1.407   1_565  A
C1761      H1764   1.082   1_545  S
C1765      C1766   1.407       .  A
C1765      C1770   1.415       .  A
C1765      C1868   1.477       .  S
C1766      C1767   1.398       .  A
C1766      H1771   1.084       .  S
C1767      C1768   1.404       .  A
C1768      C1769   1.404       .  A
C1768      H1772   1.083       .  S
C1769      C1824   1.504       .  S
C1769      C1770   1.412       .  A
C1770      H1773   1.083       .  S
C1774      C1775   1.424       .  A
C1774      C1779   1.417       .  A
C1774      C1857   1.505       .  S
C1775      C1776   1.408       .  A
C1775      H1780   1.083       .  S
C1776      C1777   1.400       .  A
C1777      C1778   1.401       .  A
C1777      H1781   1.083       .  S
C1778      C1824   1.502       .  S
C1778      C1779   1.399       .  A
C1779      H1782   1.077       .  S
O1783      C1791   1.262       .  A
O1784      C1785   1.263       .  A
C1785      C1941   1.475       .  S
C1785      O1786   1.261       .  A
O1787      C1788   1.261       .  A
C1788      C1854   1.492       .  S
C1788      O1789   1.263       .  A
O1790      C1791   1.266       .  A
C1791      C1840   1.493       .  S
O1792     Cr1801   1.994       .  S
O1792      C1800   1.261       .  A
O1793     Cr1801   1.987       .  S
O1793      C1794   1.262       .  A
C1794      C1955   1.480       .  S
C1794      O1795   1.265       .  A
O1795     Cr1802   1.995       .  S
O1796     Cr1802   1.982       .  S
O1796      C1797   1.260       .  A
C1797      C1871   1.470       .  S
C1797      O1798   1.265       .  A
O1798     Cr1803   2.009       .  S
O1799     Cr1803   1.988       .  S
O1799      C1800   1.264       .  A
C1800      C1829   1.479       .  S
Cr1801     O1804   1.768       .  S
Cr1802     O1804   1.766       .  S
Cr1803     O1804   1.766       .  S
C1805      C1806   1.426       .  A
C1805      C1810   1.413       .  A
C1805      C1826   1.504       .  S
C1806      C1807   1.407       .  A
C1806      H1811   1.079       .  S
C1807      C1808   1.398       .  A
C1808      C1809   1.400       .  A
C1808      H1812   1.082       .  S
C1809      C1810   1.399       .  A
C1810      H1813   1.083       .  S
C1814      C1815   1.416       .  A
C1814      C1819   1.419       .  A
C1814      C1843   1.497       .  S
C1815      C1816   1.404       .  A
C1815      H1820   1.083       .  S
C1816      C1817   1.402       .  A
C1817      C1818   1.401       .  A
C1817      H1821   1.082       .  S
C1818      C1819   1.405       .  A
C1819      H1822   1.081       .  S
C1823      C1824   1.349       .  D
C1823      C2375   1.506       .  S
C1823      C2424   1.504       .  S
C1825      C1826   1.408       .  A
C1825      C1830   1.403       .  A
C1825      H1832   1.079       .  S
C1826      C1827   1.426       .  A
C1827      C1828   1.401       .  A
C1827      N1834   1.436       .  S
C1828      C1829   1.398       .  A
C1828      H1833   1.084       .  S
C1829      C1830   1.416       .  A
C1830      N1831   1.436       .  S
N1831      O1835   1.262       .  A
N1831      O1836   1.262       .  A
N1834      O1837   1.263       .  A
N1834      O1838   1.263       .  A
C1839      C1840   1.406       .  A
C1839      C1844   1.397       .  A
C1839      H1846   1.083       .  S
C1840      C1841   1.417       .  A
C1841      C1842   1.408       .  A
C1841      N1848   1.433       .  S
C1842      C1843   1.410       .  A
C1842      H1847   1.081       .  S
C1843      C1844   1.418       .  A
C1844      N1845   1.436       .  S
N1845      O1849   1.263       .  A
N1845      O1850   1.263       .  A
N1848      O1851   1.263       .  A
N1848      O1852   1.262       .  A
C1853      C1854   1.404       .  A
C1853      C1858   1.405       .  A
C1853      H1860   1.084       .  S
C1854      C1855   1.418       .  A
C1855      C1856   1.399       .  A
C1855      N1862   1.436       .  S
C1856      C1857   1.407       .  A
C1856      H1861   1.083       .  S
C1857      C1858   1.424       .  A
C1858      N1859   1.433       .  S
N1859      O1863   1.261       .  A
N1859      O1864   1.263       .  A
N1862      O1865   1.262       .  A
N1862      O1866   1.263       .  A
C1867      C1868   1.401       .  A
C1867      C1872   1.398       .  A
C1867      H1874   1.085       .  S
C1868      C1869   1.416       .  A
C1869      C1870   1.410       .  A
C1869      N1876   1.439       .  S
C1870      C1871   1.402       .  A
C1870      H1875   1.084       .  S
C1871      C1872   1.409       .  A
C1872      N1873   1.436       .  S
N1873      O1877   1.263       .  A
N1873      O1878   1.262       .  A
N1876      O1879   1.262       .  A
N1876      O1880   1.263       .  A
C1881      C1882   1.407       .  A
C1881      C1886   1.410       .  A
C1881      H1888   1.084       .  S
C1882      C1883   1.415       .  A
C1883      C1884   1.398       .  A
C1883      N1890   1.437       .  S
C1884      C1885   1.403       .  A
C1884      H1889   1.085       .  S
C1885      C1886   1.417       .  A
C1886      N1887   1.439       .  S
N1887      O1891   1.263       .  A
N1887      O1892   1.263       .  A
N1890      O1893   1.263       .  A
N1890      O1894   1.263       .  A
C1895      C1896   1.406       .  A
C1895      C1900   1.410       .  A
C1895      H1902   1.084       .  S
C1896      C1897   1.418       .  A
C1897      C1898   1.398       .  A
C1897      N1904   1.437       .  S
C1898      C1899   1.399       .  A
C1898      H1903   1.085       .  S
C1899      C1900   1.417       .  A
C1900      N1901   1.440       .  S
N1901      O1905   1.263       .  A
N1901      O1906   1.263       .  A
N1904      O1907   1.263       .  A
N1904      O1908   1.263       .  A
C1909      C1910   1.415       .  A
C1909      C1914   1.406       .  A
C1909      H1916   1.077       .  S
C1910      C1911   1.424       .  A
C1911      C1912   1.399       .  A
C1911      N1918   1.433       .  S
C1912      C1913   1.403       .  A
C1912      H1917   1.084       .  S
C1913      C1914   1.413       .  A
C1914      N1915   1.436       .  S
N1915      O1919   1.262       .  A
N1915      O1920   1.263       .  A
N1918      O1921   1.263       .  A
N1918      O1922   1.262       .  A
C1923      C1924   1.408       .  A
C1923      C1928   1.402       .  A
C1923      H1930   1.080       .  S
C1924      C1925   1.425       .  A
C1925      C1926   1.403       .  A
C1925      N1932   1.435       .  S
C1926      C1927   1.399       .  A
C1926      H1931   1.084       .  S
C1927      C1928   1.412       .  A
C1928      N1929   1.434       .  S
N1929      O1933   1.263       .  A
N1929      O1934   1.261       .  A
N1932      O1935   1.263       .  A
N1932      O1936   1.263       .  A
C1937      C1938   1.404       .  A
C1937      C1942   1.410       .  A
C1937      H1944   1.083       .  S
C1938      C1939   1.413       .  A
C1939      C1940   1.397       .  A
C1939      N1946   1.442       .  S
C1940      C1941   1.402       .  A
C1940      H1945   1.084       .  S
C1941      C1942   1.417       .  A
C1942      N1943   1.441       .  S
N1943      O1947   1.263       .  A
N1943      O1948   1.263       .  A
N1946      O1949   1.263       .  A
N1946      O1950   1.263       .  A
C1951      C1952   1.403       .  A
C1951      C1956   1.410       .  A
C1951      H1958   1.083       .  S
C1952      C1953   1.412       .  A
C1953      C1954   1.396       .  A
C1953      N1960   1.439       .  S
C1954      C1955   1.404       .  A
C1954      H1959   1.084       .  S
C1955      C1956   1.420       .  A
C1956      N1957   1.442       .  S
N1957      O1961   1.263       .  A
N1957      O1962   1.263       .  A
N1960      O1963   1.263       .  A
N1960      O1964   1.263       .  A
C1965      C1966   1.405       .  A
C1965      C1970   1.407       .  A
C1965      H1972   1.083       .  S
C1966      C1967   1.416       .  A
C1967      C1968   1.394       .  A
C1967      N1974   1.434       .  S
C1968      C1969   1.405       .  A
C1968      H1973   1.083       .  S
C1969      C1970   1.423       .  A
C1970      N1971   1.438       .  S
N1971      O1975   1.263       .  A
N1971      O1976   1.262       .  A
N1974      O1977   1.262       .  A
N1974      O1978   1.263       .  A
C1979      C1980   1.400       .  A
C1979      C1984   1.398       .  A
C1979      H1986   1.085       .  S
C1980      C1981   1.413       .  A
C1981      C1982   1.407       .  A
C1981      N1988   1.440       .  S
C1982      C1983   1.403       .  A
C1982      H1987   1.084       .  S
C1983      C1984   1.413       .  A
C1984      N1985   1.439       .  S
N1985      O1989   1.263       .  A
N1985      O1990   1.261       .  A
N1988      O1991   1.262       .  A
N1988      O1992   1.263       .  A
C1993      C1994   1.347       .  D
C1993      C2050   1.493       .  S
C1993      C2081   1.495       .  S
C1994      C2139   1.508       .  S
C1994      C2150   1.505       .  S
C1995      C1996   1.349       .  D
C1996      C2052   1.503       .  S
C1996      C2083   1.503       .  S
C1997      C1998   1.343       .  D
C1998      C2001   1.500       .  S
C1998      C2012   1.501       .  S
C1999      C2000   1.413       .  A
C1999      C2004   1.407       .  A
C1999      C2312   1.471       .  S
C2000      C2001   1.408       .  A
C2000      H2005   1.083       .  S
C2001      C2002   1.402       .  A
C2002      C2003   1.402       .  A
C2002      H2006   1.083       .  S
C2003      C2004   1.399       .  A
C2004      H2007   1.084       .  S
C2008      C2009   1.419       .  A
C2008      C2013   1.414       .  A
C2008      C2301   1.495       .  S
C2009      C2010   1.404       .  A
C2009      H2014   1.084       .  S
C2010      C2011   1.401       .  A
C2011      C2012   1.400       .  A
C2011      H2015   1.083       .  S
C2012      C2013   1.398       .  A
C2013      H2016   1.079       .  S
C2017      C2018   1.344       .  D
C2017      C2141   1.488       .  S
C2017      C2148   1.492       .  S
C2019      C2020   1.411       .  A
C2019      C2024   1.412       .  A
C2019      C2284   1.476       .  S
C2020      C2021   1.404       .  A
C2020      H2025   1.083       .  S
C2021      C2037   1.498       .  S
C2021      C2022   1.403       .  A
C2022      C2023   1.402       .  A
C2022      H2026   1.082       .  S
C2023      C2024   1.402       .  A
C2024      H2027   1.083       .  S
C2028      C2029   1.412       .  A
C2028      C2033   1.408       .  A
C2028      C2270   1.473       .  S
C2029      C2030   1.405       .  A
C2029      H2034   1.083       .  S
C2030      C2037   1.499       .  S
C2030      C2031   1.402       .  A
C2031      C2032   1.403       .  A
C2031      H2035   1.082       .  S
C2032      C2033   1.403       .  A
C2033      H2036   1.083       .  S
C2037      C2038   1.345       .  D
C2038      C2041   1.494       .  S
C2038      C2090   1.495       .  S
C2039      C2040   1.414       .  A
C2039      C2044   1.424       .  A
C2039      C2256   1.500       .  S
C2040      C2041   1.402       .  A
C2040      H2045   1.083       .  S
C2041      C2042   1.402       .  A
C2042      C2043   1.401       .  A
C2042      H2046   1.082       .  S
C2043      C2044   1.405       .  A
C2044      H2047   1.080       .  S
C2048      C2049   1.419       .  A
C2048      C2053   1.423       .  A
C2048      C2242   1.512       .  S
C2049      C2050   1.406       .  A
C2049      H2054   1.082       .  S
C2050      C2051   1.400       .  A
C2051      C2052   1.398       .  A
C2051      H2055   1.083       .  S
C2052      C2053   1.403       .  A
C2053      H2056   1.077       .  S
O2057     Cr2075   1.999       .  S
O2057      C2065   1.264       .  A
O2058     Cr2075   1.977       .  S
O2058      C2059   1.257       .  A
C2059      C2315   1.468       .  S
C2059      O2060   1.260       .  A
O2060     Cr2076   1.999       .  S
O2061     Cr2076   1.986       .  S
O2061      C2062   1.263       .  A
C2062      C2245   1.489       .  S
C2062      O2063   1.268       .  A
O2063     Cr2077   2.004       .  S
O2064     Cr2077   1.984       .  S
O2064      C2065   1.262       .  A
C2065      C2259   1.479       .  S
O2066     Cr2407   1.982   1_554  S
O2066      C2074   1.260       .  A
O2067     Cr2407   1.995   1_554  S
O2067      C2068   1.264       .  A
C2068      C2298   1.488       .  S
C2068      O2069   1.264       .  A
O2069     Cr2408   1.986       .  S
O2070     Cr2408   1.991       .  S
O2070      C2071   1.261       .  A
C2071      C2228   1.485       .  S
C2071      O2072   1.262       .  A
O2072     Cr2409   1.993       .  S
O2073     Cr2409   2.002       .  S
O2073      C2074   1.265       .  A
C2074      C2214   1.484       .  S
Cr2075     O2398   1.982       .  S
Cr2075     O2399   1.995       .  S
Cr2075     O2078   1.770       .  S
Cr2076     O2401   1.986       .  S
Cr2076     O2402   1.991       .  S
Cr2076     O2078   1.771       .  S
Cr2077     O2404   1.993       .  S
Cr2077     O2405   2.002       .  S
Cr2077     O2078   1.771       .  S
C2079      C2080   1.410       .  A
C2079      C2084   1.415       .  A
C2079      C2231   1.481       .  S
C2080      C2081   1.401       .  A
C2080      H2085   1.083       .  S
C2081      C2082   1.405       .  A
C2082      C2083   1.404       .  A
C2082      H2086   1.083       .  S
C2083      C2084   1.407       .  A
C2084      H2087   1.083       .  S
C2088      C2089   1.413       .  A
C2088      C2093   1.416       .  A
C2088      C2217   1.485       .  S
C2089      C2090   1.401       .  A
C2089      H2094   1.084       .  S
C2090      C2091   1.401       .  A
C2091      C2092   1.402       .  A
C2091      H2095   1.082       .  S
C2092      C2093   1.407       .  A
C2093      H2096   1.082       .  S
C2097      C2098   1.407       .  A
C2097      C2102   1.415       .  A
C2097      C2200   1.477       .  S
C2098      C2099   1.398       .  A
C2098      H2103   1.084       .  S
C2099      C2100   1.404       .  A
C2100      C2101   1.404       .  A
C2100      H2104   1.083       .  S
C2101      C2156   1.504       .  S
C2101      C2102   1.412       .  A
C2102      H2105   1.083       .  S
C2106      C2107   1.424       .  A
C2106      C2111   1.417       .  A
C2106      C2189   1.505       .  S
C2107      C2108   1.408       .  A
C2107      H2112   1.083       .  S
C2108      C2109   1.400       .  A
C2109      C2110   1.401       .  A
C2109      H2113   1.083       .  S
C2110      C2156   1.502       .  S
C2110      C2111   1.399       .  A
C2111      H2114   1.077       .  S
O2115     Cr2465   1.990   1_554  S
O2115      C2123   1.262       .  A
O2116     Cr2465   1.996   1_554  S
O2116      C2117   1.263       .  A
C2117      C2273   1.475       .  S
C2117      O2118   1.261       .  A
O2118     Cr2466   1.987   1_554  S
O2119     Cr2466   1.997   1_554  S
O2119      C2120   1.261       .  A
C2120      C2186   1.492       .  S
C2120      O2121   1.263       .  A
O2121     Cr2467   1.989   1_554  S
O2122     Cr2467   1.997   1_554  S
O2122      C2123   1.266       .  A
C2123      C2172   1.493       .  S
O2124     Cr2133   1.994       .  S
O2124      C2132   1.261       .  A
O2125     Cr2133   1.987       .  S
O2125      C2126   1.262       .  A
C2126      C2287   1.480       .  S
C2126      O2127   1.265       .  A
O2127     Cr2134   1.995       .  S
O2128     Cr2134   1.982       .  S
O2128      C2129   1.260       .  A
C2129      C2203   1.470       .  S
C2129      O2130   1.265       .  A
O2130     Cr2135   2.009       .  S
O2131     Cr2135   1.988       .  S
O2131      C2132   1.264       .  A
C2132      C2161   1.479       .  S
Cr2133     O2447   1.990       .  S
Cr2133     O2448   1.996       .  S
Cr2133     O2136   1.768       .  S
Cr2134     O2450   1.987       .  S
Cr2134     O2451   1.997       .  S
Cr2134     O2136   1.766       .  S
Cr2135     O2453   1.989       .  S
Cr2135     O2454   1.997       .  S
Cr2135     O2136   1.766       .  S
C2137      C2138   1.426       .  A
C2137      C2142   1.413       .  A
C2137      C2158   1.504       .  S
C2138      C2139   1.407       .  A
C2138      H2143   1.079       .  S
C2139      C2140   1.398       .  A
C2140      C2141   1.400       .  A
C2140      H2144   1.082       .  S
C2141      C2142   1.399       .  A
C2142      H2145   1.083       .  S
C2146      C2147   1.416       .  A
C2146      C2151   1.419       .  A
C2146      C2175   1.497       .  S
C2147      C2148   1.404       .  A
C2147      H2152   1.083       .  S
C2148      C2149   1.402       .  A
C2149      C2150   1.401       .  A
C2149      H2153   1.082       .  S
C2150      C2151   1.405       .  A
C2151      H2154   1.081       .  S
C2155      C2156   1.349       .  D
C2157      C2158   1.408       .  A
C2157      C2162   1.403       .  A
C2157      H2164   1.079       .  S
C2158      C2159   1.426       .  A
C2159      C2160   1.401       .  A
C2159      N2166   1.436       .  S
C2160      C2161   1.398       .  A
C2160      H2165   1.084       .  S
C2161      C2162   1.416       .  A
C2162      N2163   1.436       .  S
N2163      O2167   1.262       .  A
N2163      O2168   1.262       .  A
N2166      O2169   1.263       .  A
N2166      O2170   1.263       .  A
C2171      C2172   1.406       .  A
C2171      C2176   1.397       .  A
C2171      H2178   1.083       .  S
C2172      C2173   1.417       .  A
C2173      C2174   1.408       .  A
C2173      N2180   1.433       .  S
C2174      C2175   1.410       .  A
C2174      H2179   1.081       .  S
C2175      C2176   1.418       .  A
C2176      N2177   1.436       .  S
N2177      O2181   1.263       .  A
N2177      O2182   1.263       .  A
N2180      O2183   1.263       .  A
N2180      O2184   1.262       .  A
C2185      C2186   1.404       .  A
C2185      C2190   1.405       .  A
C2185      H2192   1.084       .  S
C2186      C2187   1.418       .  A
C2187      C2188   1.399       .  A
C2187      N2194   1.436       .  S
C2188      C2189   1.407       .  A
C2188      H2193   1.083       .  S
C2189      C2190   1.424       .  A
C2190      N2191   1.433       .  S
N2191      O2195   1.261       .  A
N2191      O2196   1.263       .  A
N2194      O2197   1.262       .  A
N2194      O2198   1.263       .  A
C2199      C2200   1.401       .  A
C2199      C2204   1.398       .  A
C2199      H2206   1.085       .  S
C2200      C2201   1.416       .  A
C2201      C2202   1.410       .  A
C2201      N2208   1.439       .  S
C2202      C2203   1.402       .  A
C2202      H2207   1.084       .  S
C2203      C2204   1.409       .  A
C2204      N2205   1.436       .  S
N2205      O2209   1.263       .  A
N2205      O2210   1.262       .  A
N2208      O2211   1.262       .  A
N2208      O2212   1.263       .  A
C2213      C2214   1.407       .  A
C2213      C2218   1.410       .  A
C2213      H2220   1.084       .  S
C2214      C2215   1.415       .  A
C2215      C2216   1.398       .  A
C2215      N2222   1.437       .  S
C2216      C2217   1.403       .  A
C2216      H2221   1.085       .  S
C2217      C2218   1.417       .  A
C2218      N2219   1.439       .  S
N2219      O2223   1.263       .  A
N2219      O2224   1.263       .  A
N2222      O2225   1.263       .  A
N2222      O2226   1.263       .  A
C2227      C2228   1.406       .  A
C2227      C2232   1.410       .  A
C2227      H2234   1.084       .  S
C2228      C2229   1.418       .  A
C2229      C2230   1.398       .  A
C2229      N2236   1.437       .  S
C2230      C2231   1.399       .  A
C2230      H2235   1.085       .  S
C2231      C2232   1.417       .  A
C2232      N2233   1.440       .  S
N2233      O2237   1.263       .  A
N2233      O2238   1.263       .  A
N2236      O2239   1.263       .  A
N2236      O2240   1.263       .  A
C2241      C2242   1.415       .  A
C2241      C2246   1.406       .  A
C2241      H2248   1.077       .  S
C2242      C2243   1.424       .  A
C2243      C2244   1.399       .  A
C2243      N2250   1.433       .  S
C2244      C2245   1.403       .  A
C2244      H2249   1.084       .  S
C2245      C2246   1.413       .  A
C2246      N2247   1.436       .  S
N2247      O2251   1.262       .  A
N2247      O2252   1.263       .  A
N2250      O2253   1.263       .  A
N2250      O2254   1.262       .  A
C2255      C2256   1.408       .  A
C2255      C2260   1.402       .  A
C2255      H2262   1.080       .  S
C2256      C2257   1.425       .  A
C2257      C2258   1.403       .  A
C2257      N2264   1.435       .  S
C2258      C2259   1.399       .  A
C2258      H2263   1.084       .  S
C2259      C2260   1.412       .  A
C2260      N2261   1.434       .  S
N2261      O2265   1.263       .  A
N2261      O2266   1.261       .  A
N2264      O2267   1.263       .  A
N2264      O2268   1.263       .  A
C2269      C2270   1.404       .  A
C2269      C2274   1.410       .  A
C2269      H2276   1.083       .  S
C2270      C2271   1.413       .  A
C2271      C2272   1.397       .  A
C2271      N2278   1.442       .  S
C2272      C2273   1.402       .  A
C2272      H2277   1.084       .  S
C2273      C2274   1.417       .  A
C2274      N2275   1.441       .  S
N2275      O2279   1.263       .  A
N2275      O2280   1.263       .  A
N2278      O2281   1.263       .  A
N2278      O2282   1.263       .  A
C2283      C2284   1.403       .  A
C2283      C2288   1.410       .  A
C2283      H2290   1.083       .  S
C2284      C2285   1.412       .  A
C2285      C2286   1.396       .  A
C2285      N2292   1.439       .  S
C2286      C2287   1.404       .  A
C2286      H2291   1.084       .  S
C2287      C2288   1.420       .  A
C2288      N2289   1.442       .  S
N2289      O2293   1.263       .  A
N2289      O2294   1.263       .  A
N2292      O2295   1.263       .  A
N2292      O2296   1.263       .  A
C2297      C2298   1.405       .  A
C2297      C2302   1.407       .  A
C2297      H2304   1.083       .  S
C2298      C2299   1.416       .  A
C2299      C2300   1.394       .  A
C2299      N2306   1.434       .  S
C2300      C2301   1.405       .  A
C2300      H2305   1.083       .  S
C2301      C2302   1.423       .  A
C2302      N2303   1.438       .  S
N2303      O2307   1.263       .  A
N2303      O2308   1.262       .  A
N2306      O2309   1.262       .  A
N2306      O2310   1.263       .  A
C2311      C2312   1.400       .  A
C2311      C2316   1.398       .  A
C2311      H2318   1.085       .  S
C2312      C2313   1.413       .  A
C2313      C2314   1.407       .  A
C2313      N2320   1.440       .  S
C2314      C2315   1.403       .  A
C2314      H2319   1.084       .  S
C2315      C2316   1.413       .  A
C2316      N2317   1.439       .  S
N2317      O2321   1.263       .  A
N2317      O2322   1.261       .  A
N2320      O2323   1.262       .  A
N2320      O2324   1.263       .  A
C2325      C2326   1.347       .  D
C2325      C2382   1.493       .  S
C2325      C2413   1.495       .  S
C2326      C2471   1.508       .  S
C2326      C2482   1.505       .  S
C2327      C2328   1.349       .  D
C2328      C2384   1.503       .  S
C2328      C2415   1.503       .  S
C2329      C2330   1.343       .  D
C2330      C2333   1.500       .  S
C2330      C2344   1.501       .  S
C2331      C2332   1.413       .  A
C2331      C2336   1.407       .  A
C2331      C2644   1.471       .  S
C2332      C2333   1.408       .  A
C2332      H2337   1.083       .  S
C2333      C2334   1.402       .  A
C2334      C2335   1.402       .  A
C2334      H2338   1.083       .  S
C2335      C2336   1.399       .  A
C2336      H2339   1.084       .  S
C2340      C2341   1.419       .  A
C2340      C2345   1.414       .  A
C2340      C2633   1.495       .  S
C2341      C2342   1.404       .  A
C2341      H2346   1.084       .  S
C2342      C2343   1.401       .  A
C2343      C2344   1.400       .  A
C2343      H2347   1.083       .  S
C2344      C2345   1.398       .  A
C2345      H2348   1.079       .  S
C2349      C2350   1.344       .  D
C2349      C2473   1.488       .  S
C2349      C2480   1.492       .  S
C2351      C2352   1.411       .  A
C2351      C2356   1.412       .  A
C2351      C2616   1.476       .  S
C2352      C2353   1.404       .  A
C2352      H2357   1.083       .  S
C2353      C2369   1.498       .  S
C2353      C2354   1.403       .  A
C2354      C2355   1.402       .  A
C2354      H2358   1.082       .  S
C2355      C2356   1.402       .  A
C2356      H2359   1.083       .  S
C2360      C2361   1.412       .  A
C2360      C2365   1.408       .  A
C2360      C2602   1.473       .  S
C2361      C2362   1.405       .  A
C2361      H2366   1.083       .  S
C2362      C2369   1.499       .  S
C2362      C2363   1.402       .  A
C2363      C2364   1.403       .  A
C2363      H2367   1.082       .  S
C2364      C2365   1.403       .  A
C2365      H2368   1.083       .  S
C2369      C2370   1.345       .  D
C2370      C2373   1.494       .  S
C2370      C2422   1.495       .  S
C2371      C2372   1.414       .  A
C2371      C2376   1.424       .  A
C2371      C2588   1.500       .  S
C2372      C2373   1.402       .  A
C2372      H2377   1.083       .  S
C2373      C2374   1.402       .  A
C2374      C2375   1.401       .  A
C2374      H2378   1.082       .  S
C2375      C2376   1.405       .  A
C2376      H2379   1.080       .  S
C2380      C2381   1.419       .  A
C2380      C2385   1.423       .  A
C2380      C2574   1.512       .  S
C2381      C2382   1.406       .  A
C2381      H2386   1.082       .  S
C2382      C2383   1.400       .  A
C2383      C2384   1.398       .  A
C2383      H2387   1.083       .  S
C2384      C2385   1.403       .  A
C2385      H2388   1.077       .  S
O2389     Cr2407   1.999       .  S
O2389      C2397   1.264       .  A
O2390     Cr2407   1.977       .  S
O2390      C2391   1.257       .  A
C2391      C2647   1.468       .  S
C2391      O2392   1.260       .  A
O2392     Cr2408   1.999   1_556  S
O2393     Cr2408   1.986   1_556  S
O2393      C2394   1.263       .  A
C2394      C2577   1.489       .  S
C2394      O2395   1.268       .  A
O2395     Cr2409   2.004   1_556  S
O2396     Cr2409   1.984   1_556  S
O2396      C2397   1.262       .  A
C2397      C2591   1.479       .  S
O2398      C2406   1.260       .  A
O2399      C2400   1.264       .  A
C2400      C2630   1.488       .  S
C2400      O2401   1.264       .  A
O2402      C2403   1.261       .  A
C2403      C2560   1.485       .  S
C2403      O2404   1.262       .  A
O2405      C2406   1.265       .  A
C2406      C2546   1.484       .  S
Cr2407     O2410   1.770       .  S
Cr2408     O2410   1.771   1_554  S
Cr2409     O2410   1.771   1_554  S
C2411      C2412   1.410       .  A
C2411      C2416   1.415       .  A
C2411      C2563   1.481       .  S
C2412      C2413   1.401       .  A
C2412      H2417   1.083       .  S
C2413      C2414   1.405       .  A
C2414      C2415   1.404       .  A
C2414      H2418   1.083       .  S
C2415      C2416   1.407       .  A
C2416      H2419   1.083       .  S
C2420      C2421   1.413       .  A
C2420      C2425   1.416       .  A
C2420      C2549   1.485       .  S
C2421      C2422   1.401       .  A
C2421      H2426   1.084       .  S
C2422      C2423   1.401       .  A
C2423      C2424   1.402       .  A
C2423      H2427   1.082       .  S
C2424      C2425   1.407       .  A
C2425      H2428   1.082       .  S
C2429      C2430   1.407       .  A
C2429      C2434   1.415       .  A
C2429      C2532   1.477       .  S
C2430      C2431   1.398       .  A
C2430      H2435   1.084       .  S
C2431      C2432   1.404       .  A
C2432      C2433   1.404       .  A
C2432      H2436   1.083       .  S
C2433      C2488   1.504       .  S
C2433      C2434   1.412       .  A
C2434      H2437   1.083       .  S
C2438      C2439   1.424       .  A
C2438      C2443   1.417       .  A
C2438      C2521   1.505       .  S
C2439      C2440   1.408       .  A
C2439      H2444   1.083       .  S
C2440      C2441   1.400       .  A
C2441      C2442   1.401       .  A
C2441      H2445   1.083       .  S
C2442      C2488   1.502       .  S
C2442      C2443   1.399       .  A
C2443      H2446   1.077       .  S
O2447      C2455   1.262       .  A
O2448      C2449   1.263       .  A
C2449      C2605   1.475       .  S
C2449      O2450   1.261       .  A
O2451      C2452   1.261       .  A
C2452      C2518   1.492       .  S
C2452      O2453   1.263       .  A
O2454      C2455   1.266       .  A
C2455      C2504   1.493       .  S
O2456     Cr2465   1.994       .  S
O2456      C2464   1.261       .  A
O2457     Cr2465   1.987       .  S
O2457      C2458   1.262       .  A
C2458      C2619   1.480       .  S
C2458      O2459   1.265       .  A
O2459     Cr2466   1.995       .  S
O2460     Cr2466   1.982       .  S
O2460      C2461   1.260       .  A
C2461      C2535   1.470       .  S
C2461      O2462   1.265       .  A
O2462     Cr2467   2.009       .  S
O2463     Cr2467   1.988       .  S
O2463      C2464   1.264       .  A
C2464      C2493   1.479       .  S
Cr2465     O2468   1.768       .  S
Cr2466     O2468   1.766       .  S
Cr2467     O2468   1.766       .  S
C2469      C2470   1.426       .  A
C2469      C2474   1.413       .  A
C2469      C2490   1.504       .  S
C2470      C2471   1.407       .  A
C2470      H2475   1.079       .  S
C2471      C2472   1.398       .  A
C2472      C2473   1.400       .  A
C2472      H2476   1.082       .  S
C2473      C2474   1.399       .  A
C2474      H2477   1.083       .  S
C2478      C2479   1.416       .  A
C2478      C2483   1.419       .  A
C2478      C2507   1.497       .  S
C2479      C2480   1.404       .  A
C2479      H2484   1.083       .  S
C2480      C2481   1.402       .  A
C2481      C2482   1.401       .  A
C2481      H2485   1.082       .  S
C2482      C2483   1.405       .  A
C2483      H2486   1.081       .  S
C2487      C2488   1.349       .  D
C2489      C2490   1.408       .  A
C2489      C2494   1.403       .  A
C2489      H2496   1.079       .  S
C2490      C2491   1.426       .  A
C2491      C2492   1.401       .  A
C2491      N2498   1.436       .  S
C2492      C2493   1.398       .  A
C2492      H2497   1.084       .  S
C2493      C2494   1.416       .  A
C2494      N2495   1.436       .  S
N2495      O2499   1.262       .  A
N2495      O2500   1.262       .  A
N2498      O2501   1.263       .  A
N2498      O2502   1.263       .  A
C2503      C2504   1.406       .  A
C2503      C2508   1.397       .  A
C2503      H2510   1.083       .  S
C2504      C2505   1.417       .  A
C2505      C2506   1.408       .  A
C2505      N2512   1.433       .  S
C2506      C2507   1.410       .  A
C2506      H2511   1.081       .  S
C2507      C2508   1.418       .  A
C2508      N2509   1.436       .  S
N2509      O2513   1.263       .  A
N2509      O2514   1.263       .  A
N2512      O2515   1.263       .  A
N2512      O2516   1.262       .  A
C2517      C2518   1.404       .  A
C2517      C2522   1.405       .  A
C2517      H2524   1.084       .  S
C2518      C2519   1.418       .  A
C2519      C2520   1.399       .  A
C2519      N2526   1.436       .  S
C2520      C2521   1.407       .  A
C2520      H2525   1.083       .  S
C2521      C2522   1.424       .  A
C2522      N2523   1.433       .  S
N2523      O2527   1.261       .  A
N2523      O2528   1.263       .  A
N2526      O2529   1.262       .  A
N2526      O2530   1.263       .  A
C2531      C2532   1.401       .  A
C2531      C2536   1.398       .  A
C2531      H2538   1.085       .  S
C2532      C2533   1.416       .  A
C2533      C2534   1.410       .  A
C2533      N2540   1.439       .  S
C2534      C2535   1.402       .  A
C2534      H2539   1.084       .  S
C2535      C2536   1.409       .  A
C2536      N2537   1.436       .  S
N2537      O2541   1.263       .  A
N2537      O2542   1.262       .  A
N2540      O2543   1.262       .  A
N2540      O2544   1.263       .  A
C2545      C2546   1.407       .  A
C2545      C2550   1.410       .  A
C2545      H2552   1.084       .  S
C2546      C2547   1.415       .  A
C2547      C2548   1.398       .  A
C2547      N2554   1.437       .  S
C2548      C2549   1.403       .  A
C2548      H2553   1.085       .  S
C2549      C2550   1.417       .  A
C2550      N2551   1.439       .  S
N2551      O2555   1.263       .  A
N2551      O2556   1.263       .  A
N2554      O2557   1.263       .  A
N2554      O2558   1.263       .  A
C2559      C2560   1.406       .  A
C2559      C2564   1.410       .  A
C2559      H2566   1.084       .  S
C2560      C2561   1.418       .  A
C2561      C2562   1.398       .  A
C2561      N2568   1.437       .  S
C2562      C2563   1.399       .  A
C2562      H2567   1.085       .  S
C2563      C2564   1.417       .  A
C2564      N2565   1.440       .  S
N2565      O2569   1.263       .  A
N2565      O2570   1.263       .  A
N2568      O2571   1.263       .  A
N2568      O2572   1.263       .  A
C2573      C2574   1.415       .  A
C2573      C2578   1.406       .  A
C2573      H2580   1.077       .  S
C2574      C2575   1.424       .  A
C2575      C2576   1.399       .  A
C2575      N2582   1.433       .  S
C2576      C2577   1.403       .  A
C2576      H2581   1.084       .  S
C2577      C2578   1.413       .  A
C2578      N2579   1.436       .  S
N2579      O2583   1.262       .  A
N2579      O2584   1.263       .  A
N2582      O2585   1.263       .  A
N2582      O2586   1.262       .  A
C2587      C2588   1.408       .  A
C2587      C2592   1.402       .  A
C2587      H2594   1.080       .  S
C2588      C2589   1.425       .  A
C2589      C2590   1.403       .  A
C2589      N2596   1.435       .  S
C2590      C2591   1.399       .  A
C2590      H2595   1.084       .  S
C2591      C2592   1.412       .  A
C2592      N2593   1.434       .  S
N2593      O2597   1.263       .  A
N2593      O2598   1.261       .  A
N2596      O2599   1.263       .  A
N2596      O2600   1.263       .  A
C2601      C2602   1.404       .  A
C2601      C2606   1.410       .  A
C2601      H2608   1.083       .  S
C2602      C2603   1.413       .  A
C2603      C2604   1.397       .  A
C2603      N2610   1.442       .  S
C2604      C2605   1.402       .  A
C2604      H2609   1.084       .  S
C2605      C2606   1.417       .  A
C2606      N2607   1.441       .  S
N2607      O2611   1.263       .  A
N2607      O2612   1.263       .  A
N2610      O2613   1.263       .  A
N2610      O2614   1.263       .  A
C2615      C2616   1.403       .  A
C2615      C2620   1.410       .  A
C2615      H2622   1.083       .  S
C2616      C2617   1.412       .  A
C2617      C2618   1.396       .  A
C2617      N2624   1.439       .  S
C2618      C2619   1.404       .  A
C2618      H2623   1.084       .  S
C2619      C2620   1.420       .  A
C2620      N2621   1.442       .  S
N2621      O2625   1.263       .  A
N2621      O2626   1.263       .  A
N2624      O2627   1.263       .  A
N2624      O2628   1.263       .  A
C2629      C2630   1.405       .  A
C2629      C2634   1.407       .  A
C2629      H2636   1.083       .  S
C2630      C2631   1.416       .  A
C2631      C2632   1.394       .  A
C2631      N2638   1.434       .  S
C2632      C2633   1.405       .  A
C2632      H2637   1.083       .  S
C2633      C2634   1.423       .  A
C2634      N2635   1.438       .  S
N2635      O2639   1.263       .  A
N2635      O2640   1.262       .  A
N2638      O2641   1.262       .  A
N2638      O2642   1.263       .  A
C2643      C2644   1.400       .  A
C2643      C2648   1.398       .  A
C2643      H2650   1.085       .  S
C2644      C2645   1.413       .  A
C2645      C2646   1.407       .  A
C2645      N2652   1.440       .  S
C2646      C2647   1.403       .  A
C2646      H2651   1.084       .  S
C2647      C2648   1.413       .  A
C2648      N2649   1.439       .  S
N2649      O2653   1.263       .  A
N2649      O2654   1.261       .  A
N2652      O2655   1.262       .  A
N2652      O2656   1.263       .  A
