geometry optimzed in LAMMPS
_audit_creation_date              2020-11-30 
_audit_creation_method            'lammps2cif' 
_symmetry_space_group_name_H-M    'P1' 
_symmetry_Int_Tables_number       1 
_symmetry_cell_setting            triclinic 
loop_ 
_symmetry_equiv_pos_as_xyz 
  x,y,z 
_cell_length_a                    43.72015255 
_cell_length_b                    36.26160496428958 
_cell_length_c                    39.19013750157558 
_cell_angle_alpha                 89.34319559687786 
_cell_angle_beta                  90.57643476433616 
_cell_angle_gamma                 89.52104562712061 
loop_ 
_atom_site_label 
_atom_site_type_symbol 
_atom_site_fract_x 
_atom_site_fract_y 
_atom_site_fract_z 
_atom_site_charge 
O1          O  0.05703848  0.91221361  0.36384529    -0.86200
O2          O  0.10892345  0.95100191  0.35048028    -0.83300
C3          C  0.10176002  0.98382456  0.35812478     0.97300
O4          O  0.09657541  0.99165073  0.38879279    -0.83300
O5          O  0.07944125  0.98093320  0.45671001    -0.85900
C6          C  0.05171965  0.97011629  0.45898271     1.01800
O7          O  0.04394281  0.93983154  0.44684904    -0.78700
O8          O  0.04248482  0.87990409  0.40836719    -0.78900
C9          C  0.03620990  0.89757486  0.38095677     1.01700
O10         O  0.09260439  0.84952989  0.38831789    -0.86200
O11         O  0.14339180  0.89246638  0.38263638    -0.83300
C12         C  0.16185883  0.91828564  0.38737612     0.97300
O13         O  0.15291427  0.94906621  0.39940740    -0.83300
O14         O  0.13488792  0.93448986  0.46442031    -0.85900
C15         C  0.11984311  0.93024567  0.49099727     1.01700
O16         O  0.09365168  0.91568843  0.48806642    -0.78700
O17         O  0.09691588  0.85234979  0.44406955    -0.78900
C18         C  0.09667722  0.83362382  0.41705622     1.01700
Cr19       Cr  0.10008593  0.90249135  0.37418680     1.93700
Cr20       Cr  0.11463612  0.96140747  0.42670808     1.93200
Cr21       Cr  0.07152597  0.89798397  0.44483725     1.39100
O22         O  0.09532575  0.92096357  0.41519604    -1.24000
O23         O  0.03639966  0.63249860  0.40090525    -0.86200
O24         O  0.03921166  0.56797920  0.43433244    -0.83300
C25         C  0.04702494  0.53609306  0.44334999     0.97300
O26         O  0.07485993  0.52531235  0.44100177    -0.83300
O27         O  0.08966138  0.51906876  0.37280854    -0.85900
C28         C  0.09403096  0.52849089  0.34228210     1.01800
O29         O  0.09811133  0.56230934  0.33485857    -0.78700
O30         O  0.04681092  0.60192163  0.35481878    -0.78900
C31         C  0.02748410  0.61767802  0.37341694     1.01700
O32         O  0.09318238  0.65316641  0.43440808    -0.86200
O33         O  0.09052139  0.58672088  0.47465427    -0.83300
C34         C  0.11715679  0.57259980  0.47549792     0.97300
O35         O  0.13101968  0.57030655  0.44802463    -0.83300
O36         O  0.14565997  0.56034392  0.38185243    -0.85900
C37         C  0.15369453  0.59149360  0.36971473     1.01700
O38         O  0.13484222  0.61757814  0.36586485    -0.78700
O39         O  0.08570849  0.66164818  0.37928846    -0.78900
C40         C  0.09213733  0.67441210  0.40865452     1.01700
Cr41       Cr  0.06692367  0.60907361  0.43393732     1.93700
Cr42       Cr  0.10892193  0.54657428  0.41054120     1.93200
Cr43       Cr  0.09094844  0.60944591  0.36138419     1.39100
O44         O  0.08901116  0.58805670  0.40179245    -1.24000
O45         O  0.29222475  0.87865242  0.31163073    -0.86200
O46         O  0.29373426  0.94110270  0.27639906    -0.83300
C47         C  0.30045030  0.97318753  0.26783062     0.97300
O48         O  0.32796293  0.98452449  0.27005988    -0.83300
O49         O  0.34390214  0.99061790  0.33822918    -0.85900
C50         C  0.35016486  0.98142420  0.36854693     1.01800
O51         O  0.35665051  0.94801014  0.37550587    -0.78700
O52         O  0.30467907  0.90893885  0.35763405    -0.78900
C53         C  0.28459921  0.89352251  0.33959219     1.01700
O54         O  0.34815728  0.85520163  0.27788662    -0.86200
O55         O  0.34476930  0.92166829  0.23621580    -0.83300
C56         C  0.37074963  0.93713588  0.23527641     0.97300
O57         O  0.38500252  0.94043817  0.26265692    -0.83300
O58         O  0.40082771  0.95018946  0.32789446    -0.85900
C59         C  0.41050934  0.91910922  0.33921014     1.01700
O60         O  0.39229948  0.89289124  0.34387615    -0.78700
O61         O  0.34240697  0.84894231  0.33308987    -0.78900
C62         C  0.34649269  0.83456804  0.30400585     1.01700
Cr63       Cr  0.32201014  0.90019865  0.27758209     1.93700
Cr64       Cr  0.36307969  0.96366734  0.30014234     1.93200
Cr65       Cr  0.34854714  0.90103676  0.34975577     1.39100
O66         O  0.34462047  0.92183964  0.30917224    -1.24000
O67         O  0.29615878  0.59558373  0.34178766    -0.86200
O68         O  0.34768275  0.55738408  0.36354648    -0.83300
C69         C  0.34289793  0.52431261  0.35515325     0.97300
O70         O  0.33983196  0.51637731  0.32417641    -0.83300
O71         O  0.32769180  0.52584980  0.25537758    -0.85900
C72         C  0.30018903  0.53688185  0.25035620     1.01800
O73         O  0.29182646  0.56871442  0.25803722    -0.78700
O74         O  0.28547194  0.62869846  0.29597654    -0.78900
C75         C  0.27686055  0.61245695  0.32321053     1.01700
O76         O  0.33314543  0.65772419  0.32294190    -0.86200
O77         O  0.38359359  0.61556622  0.33559388    -0.83300
C78         C  0.40329417  0.59069849  0.33114596     0.97300
O79         O  0.39596489  0.55944543  0.31911862    -0.83300
O80         O  0.38317884  0.57184416  0.25299155    -0.85900
C81         C  0.37070308  0.57671454  0.22467165     1.01700
O82         O  0.34452057  0.59216825  0.22399042    -0.78700
O83         O  0.34317994  0.65586106  0.26839962    -0.78900
C84         C  0.33998669  0.67422648  0.29540923     1.01700
Cr85       Cr  0.33994819  0.60521960  0.33804361     1.93700
Cr86       Cr  0.36016566  0.54612534  0.28830613     1.93200
Cr87       Cr  0.31844586  0.61024492  0.26391588     1.39100
O88         O  0.33946477  0.58682890  0.29672481    -1.24000
O89         O  0.44254668  0.41097039  0.09580424    -0.86200
O90         O  0.39106457  0.45039334  0.11666532    -0.83300
C91         C  0.39712246  0.48361132  0.10960266     0.97300
O92         O  0.40193215  0.49261780  0.07911567    -0.83300
O93         O  0.41449944  0.48709879  0.01047655    -0.85900
C94         C  0.44144669  0.47444488  0.00580177     1.01800
O95         O  0.44823002  0.44167962  0.01287580    -0.78700
O96         O  0.45188763  0.37947226  0.04967828    -0.78900
C97         C  0.46130722  0.39426427  0.07707690     1.01700
O98         O  0.40360221  0.35135211  0.07447737    -0.86200
O99         O  0.35431172  0.39591920  0.08652986    -0.83300
C100        C  0.33552708  0.42207598  0.08237596     0.97300
O101        O  0.34376208  0.45335934  0.07035853    -0.83300
O102        O  0.35681891  0.44760108  0.50269265    -0.85900
C103        C  0.36897555  0.43810328  0.47544742     1.01700
O104        O  0.39466578  0.42145254  0.47709884    -0.78700
O105        O  0.39315317  0.35760768  0.01999915    -0.78900
C106        C  0.39554233  0.33736465  0.04631744     1.01700
Cr107      Cr  0.39821286  0.40370467  0.09040645     1.93700
Cr108      Cr  0.38069137  0.46698504  0.04128463     1.93200
Cr109      Cr  0.41991343  0.40136973  0.01718460     1.39100
O110        O  0.39934828  0.42426710  0.04940027    -1.24000
O111        O  0.45165684  0.13582277  0.06325090    -0.86200
O112        O  0.45296875  0.07355069  0.02836401    -0.83300
C113        C  0.44636488  0.04229754  0.01757917     0.97300
O114        O  0.41897979  0.03028685  0.02006108    -0.83300
O115        O  0.40161504  0.02240237  0.08831967    -0.85900
C116        C  0.39495724  0.03168743  0.11824729     1.01800
O117        O  0.38753231  0.06489124  0.12420660    -0.78700
O118        O  0.43789515  0.10626162  0.10964164    -0.78900
C119        C  0.45852868  0.11968714  0.09135371     1.01700
O120        O  0.39576157  0.15697064  0.02564609    -0.86200
O121        O  0.40229570  0.09176275  0.48557397    -0.83300
C122        C  0.37633409  0.07641913  0.48376069     0.97300
O123        O  0.36153783  0.07348346  0.51059163    -0.83300
O124        O  0.34432341  0.06066027  0.07589564    -0.85900
C125        C  0.33395412  0.09137790  0.08643537     1.01700
O126        O  0.35096053  0.11898890  0.08902902    -0.78700
O127        O  0.40016010  0.16473370  0.08079753    -0.78900
C128        C  0.39522590  0.17798014  0.05107325     1.01700
Cr129      Cr  0.42355468  0.11362023  0.02771620     1.93700
Cr130      Cr  0.38288482  0.04940121  0.04908218     1.93200
Cr131      Cr  0.39464565  0.11247566  0.09825028     1.39100
O132        O  0.40064397  0.09137200  0.05858745    -1.24000
O133        O  0.20457360  0.37710955  0.15436530    -0.86200
O134        O  0.20055042  0.43937565  0.18792714    -0.83300
C135        C  0.19318808  0.47182343  0.19418549     0.97300
O136        O  0.16562121  0.48311718  0.19025232    -0.83300
O137        O  0.15114118  0.48676509  0.12167863    -0.85900
C138        C  0.14527283  0.47705165  0.09168360     1.01800
O139        O  0.13954525  0.44356676  0.08589851    -0.78700
O140        O  0.19247214  0.40650618  0.10695303    -0.78900
C141        C  0.21257592  0.39210181  0.12633601     1.01700
O142        O  0.14788720  0.35281272  0.18666952    -0.86200
O143        O  0.14883859  0.41947952  0.22665098    -0.83300
C144        C  0.12272989  0.43519780  0.22693016     0.97300
O145        O  0.10925955  0.43981959  0.19902654    -0.83300
O146        O  0.09425207  0.44626985  0.13215398    -0.85900
C147        C  0.08592511  0.41461588  0.12176526     1.01700
O148        O  0.10482529  0.38844175  0.11902237    -0.78700
O149        O  0.15598505  0.34625605  0.13199365    -0.78900
C150        C  0.15033517  0.33220916  0.16101484     1.01700
Cr151      Cr  0.17316255  0.39816998  0.18672266     1.93700
Cr152      Cr  0.13146564  0.46111364  0.16045355     1.93200
Cr153      Cr  0.14858119  0.39762833  0.11376480     1.39100
O154        O  0.15088897  0.41914618  0.15376542    -1.24000
O155        O  0.19129284  0.09275779  0.11816949    -0.86200
O156        O  0.13883700  0.05571509  0.09943540    -0.83300
C157        C  0.14334644  0.02241967  0.10825405     0.97300
O158        O  0.14728683  0.01433825  0.13928212    -0.83300
O159        O  0.16343451  0.02376693  0.20707642    -0.85900
C160        C  0.19115017  0.03446891  0.21000096     1.01800
O161        O  0.19881110  0.06615200  0.20106104    -0.78700
O162        O  0.20310141  0.12616211  0.16245471    -0.78900
C163        C  0.21103170  0.10960064  0.13542974     1.01700
O164        O  0.15468724  0.15587969  0.13764000    -0.86200
O165        O  0.10425489  0.11438869  0.12656203    -0.83300
C166        C  0.08436214  0.09052923  0.13271020     0.97300
O167        O  0.09204364  0.05986783  0.14684153    -0.83300
O168        O  0.10764933  0.07054436  0.21238680    -0.85900
C169        C  0.12134842  0.07606813  0.23982794     1.01700
O170        O  0.14774706  0.09026311  0.23826510    -0.78700
O171        O  0.14647715  0.15337113  0.19267215    -0.78900
C172        C  0.14906946  0.17207774  0.16548889     1.01700
Cr173      Cr  0.14762529  0.10333109  0.12347456     1.93700
Cr174      Cr  0.12907749  0.04484697  0.17582450     1.93200
Cr175      Cr  0.17173446  0.10785360  0.19644031     1.39100
O176        O  0.14936644  0.08501133  0.16527126    -1.24000
C177        C  0.12632381  0.27258585  0.18133844    -0.02700
C178        C  0.15017810  0.29135595  0.16462362     0.07000
C179        C  0.17417781  0.27075237  0.15000390    -0.02800
C180        C  0.17335403  0.23208337  0.14995816    -0.02800
C181        C  0.14932473  0.21307981  0.16623225     0.07100
C182        C  0.12634359  0.23355495  0.18297454    -0.03000
Br183      Br  0.09432033  0.20846036  0.20729866    -0.01600
Br184      Br  0.09263098  0.30013160  0.20007720    -0.01600
Br185      Br  0.20658714  0.20580729  0.12847043    -0.01600
Br186      Br  0.20974146  0.29496725  0.13152057    -0.01600
C187        C  0.01061929  0.14271243  0.10706773    -0.02700
C188        C  0.49061271  0.11328289  0.10183404     0.07000
C189        C  0.00111991  0.07671392  0.10672226    -0.02800
C190        C  0.03186051  0.06933983  0.11491945    -0.02800
C191        C  0.05205249  0.09863191  0.12196244     0.07100
C192        C  0.04112024  0.13568707  0.11750055    -0.03000
Br193      Br  0.06675743  0.17809059  0.12514962    -0.01600
Br194      Br  0.49535273  0.19272143  0.10207134    -0.01600
Br195      Br  0.04603657  0.01884028  0.11212596    -0.01600
Br196      Br  0.47356353  0.03577179  0.10207547    -0.01600
C197        C  0.24897867  0.11015881  0.08793693    -0.02700
C198        C  0.24313187  0.10934245  0.12344219     0.07000
C199        C  0.26780208  0.10382908  0.14661653    -0.02800
C200        C  0.29739053  0.09713040  0.13423502    -0.02800
C201        C  0.30247548  0.09495684  0.09883552     0.07100
C202        C  0.27827062  0.10145722  0.07572350    -0.03000
Br203      Br  0.28549730  0.09892430  0.02731208    -0.01600
Br204      Br  0.21792393  0.12720111  0.05593261    -0.01600
Br205      Br  0.33105161  0.09044575  0.16606743    -0.01600
Br206      Br  0.26194744  0.10484249  0.19538017    -0.01600
C207        C  0.25297807  0.39177100  0.08117207    -0.02700
C208        C  0.24527888  0.39417610  0.11609255     0.07000
C209        C  0.26843825  0.40338389  0.14002047    -0.02800
C210        C  0.29734398  0.41482699  0.12856329    -0.02800
C211        C  0.30392641  0.41540973  0.09344791     0.07100
C212        C  0.28220286  0.40222753  0.07000193    -0.03000
Br213      Br  0.29327895  0.39643458  0.02283797    -0.01600
Br214      Br  0.22472039  0.37043363  0.04893108    -0.01600
Br215      Br  0.32835301  0.42934301  0.16112179    -0.01600
Br216      Br  0.26194564  0.39934582  0.18855700    -0.01600
C217        C  0.01759871  0.39971426  0.06356499    -0.02700
C218        C  0.49414084  0.39303600  0.08748849     0.07000
C219        C  0.50194370  0.38999998  0.12253762    -0.02800
C220        C  0.03167598  0.39846613  0.13393767    -0.02800
C221        C  0.05423261  0.40825063  0.11027951     0.07100
C222        C  0.04748539  0.40741319  0.07506691    -0.03000
Br223      Br  0.07935472  0.41733686  0.04249686    -0.01600
Br224      Br  0.00972692  0.39869330  0.01502435    -0.01600
Br225      Br  0.04174278  0.39599064  0.18193640    -0.01600
Br226      Br  0.47278062  0.37061383  0.15463449    -0.01600
C227        C  0.37215881  0.23897076  0.06739489    -0.02700
C228        C  0.39186503  0.21857276  0.04623558     0.07000
C229        C  0.41060498  0.23757160  0.52276211    -0.02800
C230        C  0.41059918  0.27647677  0.52162390    -0.02800
C231        C  0.39207229  0.29679051  0.04406892     0.07100
C232        C  0.37259176  0.27786461  0.06667836    -0.03000
Br233      Br  0.34653590  0.30520373  0.09699982    -0.01600
Br234      Br  0.34386697  0.21366597  0.09685914    -0.01600
Br235      Br  0.43855223  0.30179559  0.49163366    -0.01600
Br236      Br  0.43860304  0.21078917  0.49406479    -0.01600
C237        C  0.36992117  0.44305532  0.41032977    -0.02700
C238        C  0.35532611  0.45113374  0.44164017     0.07000
C239        C  0.33045867  0.47710482  0.44055347    -0.02800
C240        C  0.32441179  0.49818562  0.41065221    -0.02800
C241        C  0.34329717  0.49495147  0.38207397     0.07100
C242        C  0.36481443  0.46579235  0.38117772    -0.03000
Br243      Br  0.38959269  0.45921817  0.34113788    -0.01600
Br244      Br  0.39767898  0.40156032  0.40648722    -0.01600
Br245      Br  0.28959287  0.53131281  0.40812676    -0.01600
Br246      Br  0.30429553  0.48590425  0.47922593    -0.01600
C247        C  0.38215072  0.54668721  0.13240612    -0.02700
C248        C  0.39654420  0.51177891  0.13727780     0.07000
C249        C  0.40802292  0.50237397  0.17000205    -0.02800
C250        C  0.40191632  0.52498231  0.19823398    -0.02800
C251        C  0.38424750  0.55809599  0.19407126     0.07100
C252        C  0.37671988  0.56997029  0.16054962    -0.03000
Br253      Br  0.35975610  0.61871787  0.15295028    -0.01600
Br254      Br  0.36727867  0.56200195  0.08787168    -0.01600
Br255      Br  0.41734890  0.50785051  0.24231833    -0.01600
Br256      Br  0.43254897  0.45806808  0.17638230    -0.01600
C257        C  0.27113016  0.51425932  0.19987447    -0.02700
C258        C  0.27597931  0.51398190  0.23549742     0.07000
C259        C  0.25206865  0.50330120  0.25715037    -0.02800
C260        C  0.22323446  0.49434516  0.24351663    -0.02800
C261        C  0.21829787  0.49425558  0.20793625     0.07100
C262        C  0.24268666  0.50343519  0.18613796    -0.03000
Br263      Br  0.23719697  0.50000654  0.13731015    -0.01600
Br264      Br  0.30306501  0.53065611  0.16997683    -0.01600
Br265      Br  0.19076390  0.48113851  0.27378740    -0.01600
Br266      Br  0.25909444  0.50158941  0.30590038    -0.01600
C267        C  0.24147695  0.00436632  0.20363843    -0.02700
C268        C  0.21638634  0.01216550  0.22486495     0.07000
C269        C  0.22073166  0.01142627  0.26055864    -0.02800
C270        C  0.24951178  0.00202534  0.27479561    -0.02800
C271        C  0.27469890  0.99495204  0.25351413     0.07100
C272        C  0.27056073  0.99653508  0.21785162    -0.03000
Br273      Br  0.30458676  0.98709704  0.18835846    -0.01600
Br274      Br  0.23591327  0.00560786  0.15466360    -0.01600
Br275      Br  0.25459004  0.99815125  0.32376619    -0.01600
Br276      Br  0.18789453  0.02554239  0.29004310    -0.01600
C277        C  0.36583882  0.77384179  0.27980109    -0.02700
C278        C  0.34517419  0.79354538  0.30059910     0.07000
C279        C  0.32183155  0.77381079  0.31752454    -0.02800
C280        C  0.31934844  0.73541300  0.31390973    -0.02800
C281        C  0.34137401  0.71535336  0.29532789     0.07100
C282        C  0.36458517  0.73484678  0.27813069    -0.03000
Br283      Br  0.39578329  0.70819714  0.25382634    -0.01600
Br284      Br  0.39632622  0.79974506  0.25386068    -0.01600
Br285      Br  0.28386538  0.71110289  0.33273863    -0.01600
Br286      Br  0.29147751  0.79876679  0.34469745    -0.01600
C287        C  0.37526612  0.94548796  0.17095367    -0.02700
C288        C  0.38210020  0.95751601  0.20430677     0.07000
C289        C  0.39757242  0.99178304  0.20813574    -0.02800
C290        C  0.40442253  0.01380515  0.17939556    -0.02800
C291        C  0.39400705  0.00388057  0.14666220     0.07100
C292        C  0.37999444  0.96908189  0.14244445    -0.03800
Br293      Br  0.36433953  0.95470177  0.09838004    -0.01600
Br294      Br  0.35988518  0.89639409  0.16413518    -0.01600
Br295      Br  0.42855778  0.05796048  0.18506870    -0.01600
Br296      Br  0.40761551  0.01196636  0.25246521    -0.01600
C297        C  0.37371050  0.06661026  0.41942189    -0.02700
C298        C  0.36565689  0.05565659  0.45290280     0.07000
C299        C  0.34888016  0.02233841  0.45723828    -0.02800
C300        C  0.34154667  0.00033015  0.42899540    -0.02800
C301        C  0.35200340  0.00953789  0.39616702     0.07100
C302        C  0.36705164  0.04368006  0.39125241    -0.03000
Br303      Br  0.38006663  0.05881150  0.34629851    -0.01600
Br304      Br  0.39376201  0.11317172  0.41175371    -0.01600
Br305      Br  0.31610746  0.95750642  0.43540725    -0.01600
Br306      Br  0.33769336  0.00311028  0.50183004    -0.01600
C307        C  0.49337277  0.50053072  0.01024531    -0.02700
C308        C  0.46643069  0.49603376  0.49069248     0.07000
C309        C  0.46754761  0.50078924  0.45504309    -0.02800
C310        C  0.49535222  0.50926078  0.43903147    -0.02800
C311        C  0.02230345  0.51401242  0.45857802     0.07100
C312        C  0.02111593  0.50937293  0.49429856    -0.03000
Br313      Br  0.05715982  0.51606839  0.02170305    -0.01600
Br314      Br  0.49182178  0.49491854  0.05930432    -0.01600
Br315      Br  0.49681498  0.51433281  0.38993110    -0.01600
Br316      Br  0.43108016  0.49524847  0.42802880    -0.01600
C317        C  0.47146652  0.61105513  0.38767249    -0.02700
C318        C  0.49464513  0.61702690  0.36319999     0.07000
C319        C  0.48664227  0.61742952  0.32810487    -0.02800
C320        C  0.45701951  0.60757184  0.31753548    -0.02800
C321        C  0.43488925  0.59838053  0.34190817     0.07100
C322        C  0.44173539  0.60172446  0.37689530    -0.03000
Br323      Br  0.41007022  0.59324319  0.41011518    -0.01600
Br324      Br  0.47941770  0.61501501  0.43604278    -0.01600
Br325      Br  0.44638645  0.60851895  0.26966240    -0.01600
Br326      Br  0.01531733  0.63466245  0.29436788    -0.01600
C327        C  0.19060138  0.59981146  0.32247557    -0.02700
C328        C  0.18502538  0.59752009  0.35778077     0.07000
C329        C  0.20848602  0.60541415  0.38122614    -0.02800
C330        C  0.23784249  0.61417102  0.36945177    -0.02800
C331        C  0.24445150  0.61262973  0.33416580     0.07100
C332        C  0.22034000  0.60650774  0.31058482    -0.03000
Br333      Br  0.22732328  0.60579248  0.26205934    -0.01600
Br334      Br  0.15728027  0.59356322  0.29031412    -0.01600
Br335      Br  0.26824805  0.63098541  0.40176257    -0.01600
Br336      Br  0.20008578  0.60525089  0.42946894    -0.01600
C337        C  0.12650944  0.53843983  0.06777503    -0.02700
C338        C  0.14273473  0.50486980  0.06338658     0.07000
C339        C  0.15389091  0.49629078  0.03080122    -0.02800
C340        C  0.14685420  0.51912034  0.00238761    -0.02800
C341        C  0.12953405  0.55231711  0.00639571     0.07100
C342        C  0.12089648  0.56254474  0.03969857    -0.03000
Br343      Br  0.10014208  0.60895749  0.04707412    -0.01600
Br344      Br  0.10824781  0.54966314  0.11119187    -0.01600
Br345      Br  0.15935227  0.50148110  0.45804377    -0.01600
Br346      Br  0.17877870  0.45253066  0.02470061    -0.01600
C347        C  0.08147420  0.50559994  0.28351024    -0.02700
C348        C  0.09640168  0.49987435  0.31505832     0.07000
C349        C  0.11520310  0.46809054  0.31940527    -0.02800
C350        C  0.12111702  0.44445809  0.29155787    -0.02800
C351        C  0.10979645  0.45334899  0.25839663     0.07100
C352        C  0.08837497  0.48333952  0.25519223    -0.03000
Br353      Br  0.06855040  0.49697725  0.21231632    -0.01600
Br354      Br  0.05036433  0.54363015  0.27959346    -0.01600
Br355      Br  0.14470687  0.39979207  0.29949456    -0.01600
Br356      Br  0.13487849  0.45784981  0.36288365    -0.01600
C357        C  0.21690409  0.90289819  0.39875177    -0.02700
C358        C  0.19341165  0.91254372  0.37551630     0.07000
C359        C  0.19872063  0.91037027  0.34015919    -0.02800
C360        C  0.22791964  0.90103786  0.32798446    -0.02800
C361        C  0.25230575  0.89418486  0.35130210     0.07100
C362        C  0.24603924  0.89289849  0.38669725    -0.03000
Br363      Br  0.27619831  0.87334314  0.41854721    -0.01600
Br364      Br  0.20876464  0.90211782  0.44703628    -0.01600
Br365      Br  0.23340518  0.89757377  0.27927214    -0.01600
Br366      Br  0.16576552  0.92051978  0.30809193    -0.01600
C367        C  0.46016173  0.94322395  0.36222592    -0.02700
C368        C  0.44316118  0.91368813  0.34870854     0.07000
C369        C  0.45747957  0.87857586  0.34542242    -0.02800
C370        C  0.48773446  0.87294125  0.35695754    -0.02800
C371        C  0.50449512  0.90271682  0.36943804     0.07100
C372        C  0.49122781  0.93820882  0.37019905    -0.03000
Br373      Br  0.01562133  0.98058779  0.38113601    -0.01600
Br374      Br  0.44103264  0.98968779  0.37376002    -0.01600
Br375      Br  0.50715911  0.82506510  0.35371852    -0.01600
Br376      Br  0.43690709  0.83799680  0.32397104    -0.01600
C377        C  0.12218780  0.77283018  0.40454176    -0.02700
C378        C  0.09759165  0.79268780  0.41870967     0.07000
C379        C  0.07214142  0.77331797  0.43133399    -0.02800
C380        C  0.07080010  0.73461420  0.42864231    -0.02800
C381        C  0.09491002  0.71484139  0.41337084     0.07100
C382        C  0.12089507  0.73400386  0.40197318    -0.03000
Br383      Br  0.15490182  0.70688699  0.38349874    -0.01600
Br384      Br  0.15785379  0.79894824  0.38927627    -0.01600
Br385      Br  0.03503328  0.70890029  0.94434601    -0.01600
Br386      Br  0.03815887  0.79996558  0.95057501    -0.01600
C387        C  0.08847838  0.02907209  0.27102612    -0.02700
C388        C  0.10875961  0.05967508  0.27239070     0.07000
C389        C  0.12016410  0.07000874  0.30481426    -0.02800
C390        C  0.11619201  0.04665964  0.33372885    -0.02800
C391        C  0.10061276  0.01276292  0.33054397     0.07100
C392        C  0.08534051  0.00535296  0.29955847    -0.03000
Br393      Br  0.05968486  0.96231386  0.29600326    -0.01600
Br394      Br  0.06411645  0.01819502  0.23079143    -0.01600
Br395      Br  0.13415178  0.06020498  0.37692500    -0.01600
Br396      Br  0.14056255  0.11662368  0.30998556    -0.01600
C397        C  0.15142435  0.97877159  0.02159047    -0.02700
C398        C  0.13061164  0.94858599  0.02332661     0.07000
C399        C  0.11817789  0.93940252  0.05565098    -0.02800
C400        C  0.12370478  0.96203116  0.08434915    -0.02800
C401        C  0.14260327  0.99335192  0.08149625     0.07100
C402        C  0.15821393  0.99946791  0.05085056    -0.03000
Br403      Br  0.19023542  0.03575575  0.04947383    -0.01600
Br404      Br  0.16907804  0.99639381  0.47922696    -0.01600
Br405      Br  0.10437771  0.95059269  0.12721490    -0.01600
Br406      Br  0.09359315  0.89585540  0.06137302    -0.01600
C407        C  0.51829322  0.02628909  0.46608645    -0.02700
C408        C  0.02720754  0.99069755  0.47692746     0.07000
C409        C  0.00842396  0.97123032  0.50030626    -0.02800
C410        C  0.48089771  0.98683642  0.01211179    -0.02800
C411        C  0.47163829  0.02207085  0.50067234     0.07100
C412        C  0.49022224  0.04137133  0.47698089    -0.03000
Br413      Br  0.47627210  0.08774195  0.45731385    -0.01600
Br414      Br  0.04411259  0.05412980  0.43572307    -0.01600
Br415      Br  0.45623996  0.96019045  0.04452624    -0.01600
Br416      Br  0.02080741  0.92316007  0.01736877    -0.01600
O417        O  0.05707384  0.91219433  0.86381629    -0.86200
O418        O  0.10895077  0.95100445  0.85046236    -0.83300
C419        C  0.10178342  0.98382676  0.85810617     0.97300
O420        O  0.09659136  0.99165108  0.88877300    -0.83300
O421        O  0.07944828  0.98092629  0.95668783    -0.85900
C422        C  0.05172773  0.97010300  0.95895948     1.01800
O423        O  0.04395797  0.93981275  0.94683019    -0.78700
O424        O  0.04252138  0.87988621  0.90833985    -0.78900
C425        C  0.03624595  0.89755461  0.88092837     1.01700
O426        O  0.09264981  0.84952292  0.88829733    -0.86200
O427        O  0.14342695  0.89247696  0.88262643    -0.83300
C428        C  0.16188808  0.91830137  0.88736847     0.97300
O429        O  0.15293561  0.94908127  0.89939397    -0.83300
O430        O  0.13490707  0.93449515  0.96439991    -0.85900
C431        C  0.11986530  0.93023860  0.99097677     1.01700
O432        O  0.09367434  0.91568084  0.98804482    -0.78700
O433        O  0.09695607  0.85234885  0.94404839    -0.78900
C434        C  0.09672153  0.83361964  0.91703733     1.01700
Cr435      Cr  0.10012127  0.90248842  0.87416694     1.93700
Cr436      Cr  0.11465173  0.96141052  0.92668961     1.93200
Cr437      Cr  0.07155391  0.89797379  0.94481447     1.39100
O438        O  0.09534995  0.92096175  0.91517467    -1.24000
O439        O  0.03641474  0.63249761  0.90089908    -0.86200
O440        O  0.03921747  0.56797162  0.93431910    -0.83300
C441        C  0.04703026  0.53608438  0.94333558     0.97300
O442        O  0.07486666  0.52530642  0.94099736    -0.83300
O443        O  0.08968795  0.51906158  0.87281602    -0.85900
C444        C  0.09405244  0.52848490  0.84228942     1.01800
O445        O  0.09813005  0.56230350  0.83486447    -0.78700
O446        O  0.04682688  0.60191584  0.85481693    -0.78900
C447        C  0.02749897  0.61767289  0.87341331     1.01700
O448        O  0.09319064  0.65316097  0.93441477    -0.86200
O449        O  0.09051386  0.58670691  0.97466092    -0.83300
C450        C  0.11714740  0.57258156  0.97550982     0.97300
O451        O  0.13102220  0.57030677  0.94804251    -0.83300
O452        O  0.14567936  0.56034542  0.88187547    -0.85900
C453        C  0.15371118  0.59149558  0.86973751     1.01700
O454        O  0.13485590  0.61757477  0.86587703    -0.78700
O455        O  0.08572526  0.66164223  0.87929288    -0.78900
C456        C  0.09215449  0.67440564  0.90865912     1.01700
Cr457      Cr  0.06692973  0.60906741  0.93393687     1.93700
Cr458      Cr  0.10893630  0.54657151  0.91055164     1.93200
Cr459      Cr  0.09096441  0.60944020  0.86138890     1.39100
O460        O  0.08902352  0.58805145  0.90179693    -1.24000
O461        O  0.29225467  0.87864483  0.81164307    -0.86200
O462        O  0.29375887  0.94109912  0.77640878    -0.83300
C463        C  0.30047251  0.97318632  0.76784392     0.97300
O464        O  0.32798549  0.98452316  0.77007446    -0.83300
O465        O  0.34391323  0.99061111  0.83824144    -0.85900
C466        C  0.35017561  0.98142229  0.86855951     1.01800
O467        O  0.35666580  0.94801126  0.87552500    -0.78700
O468        O  0.30470316  0.90893046  0.85764921    -0.78900
C469        C  0.28462647  0.89351251  0.83960485     1.01700
O470        O  0.34818960  0.85519811  0.77790586    -0.86200
O471        O  0.34480599  0.92166954  0.73623350    -0.83300
C472        C  0.37078667  0.93713861  0.73529674     0.97300
O473        O  0.38503322  0.94044652  0.76268000    -0.83300
O474        O  0.40084974  0.95019404  0.82791814    -0.85900
C475        C  0.41053332  0.91911298  0.83923048     1.01700
O476        O  0.39232294  0.89289709  0.84390043    -0.78700
O477        O  0.34243982  0.84894150  0.83310939    -0.78900
C478        C  0.34652563  0.83456525  0.80402639     1.01700
Cr479      Cr  0.32204044  0.90019583  0.77759660     1.93700
Cr480      Cr  0.36310160  0.96366827  0.80016129     1.93200
Cr481      Cr  0.34857127  0.90103645  0.84977488     1.39100
O482        O  0.34464618  0.92183800  0.80918951    -1.24000
O483        O  0.29617224  0.59559582  0.84183289    -0.86200
O484        O  0.34768906  0.55737118  0.86357822    -0.83300
C485        C  0.34289905  0.52430058  0.85518533     0.97300
O486        O  0.33982448  0.51636635  0.82420900    -0.83300
O487        O  0.32767090  0.52584260  0.75541245    -0.85900
C488        C  0.30016765  0.53688026  0.75040116     1.01800
O489        O  0.29181274  0.56871282  0.75809270    -0.78700
O490        O  0.28548832  0.62871173  0.79602244    -0.78900
C491        C  0.27687617  0.61247464  0.82325735     1.01700
O492        O  0.33317639  0.65771845  0.82297088    -0.86200
O493        O  0.38361072  0.61554022  0.83561783    -0.83300
C494        C  0.40330494  0.59066614  0.83116842     0.97300
O495        O  0.39596693  0.55941568  0.81914126    -0.83300
O496        O  0.38316915  0.57182329  0.75301740    -0.85900
C497        C  0.37068626  0.57668711  0.72470067     1.01700
O498        O  0.34450524  0.59214450  0.72402321    -0.78700
O499        O  0.34318944  0.65584761  0.76842342    -0.78900
C500        C  0.34000765  0.67421753  0.79543259     1.01700
Cr501      Cr  0.33996396  0.60521135  0.83807690     1.93700
Cr502      Cr  0.36015755  0.54610837  0.78833556     1.93200
Cr503      Cr  0.31844523  0.61023714  0.76395449     1.39100
O504        O  0.33946731  0.58681843  0.79675927    -1.24000
O505        O  0.44251819  0.41098149  0.59579228    -0.86200
O506        O  0.39103002  0.45039436  0.61665679    -0.83300
C507        C  0.39709713  0.48361135  0.60960604     0.97300
O508        O  0.40191256  0.49262516  0.57912205    -0.83300
O509        O  0.41448606  0.48712294  0.51048310    -0.85900
C510        C  0.44142654  0.47445617  0.50579220     1.01800
O511        O  0.44819994  0.44168314  0.51284576    -0.78700
O512        O  0.45185953  0.37948713  0.54966266    -0.78900
C513        C  0.46127900  0.39427843  0.57706238     1.01700
O514        O  0.40357997  0.35136338  0.57446750    -0.86200
O515        O  0.35428455  0.39592891  0.58650829    -0.83300
C516        C  0.33550160  0.42208814  0.58235664     0.97300
O517        O  0.34373819  0.45337358  0.57034385    -0.83300
O518        O  0.35683876  0.44754945  0.00271352    -0.85900
C519        C  0.36900372  0.43807618  0.97546271     1.01700
O520        O  0.39470202  0.42145038  0.97711075    -0.78700
O521        O  0.39311655  0.35761657  0.51999464    -0.78900
C522        C  0.39551225  0.33737376  0.54631242     1.01700
Cr523      Cr  0.39818467  0.40371427  0.59039210     1.93700
Cr524      Cr  0.38067198  0.46700728  0.54127931     1.93200
Cr525      Cr  0.41988005  0.40137783  0.51717000     1.39100
O526        O  0.39932128  0.42428128  0.54938697    -1.24000
O527        O  0.45165627  0.13583767  0.56325410    -0.86200
O528        O  0.45296585  0.07356723  0.52836918    -0.83300
C529        C  0.44636427  0.04231139  0.51758982     0.97300
O530        O  0.41898185  0.03029482  0.52007458    -0.83300
O531        O  0.40162167  0.02240789  0.58833149    -0.85900
C532        C  0.39497059  0.03169074  0.61826151     1.01800
O533        O  0.38754734  0.06489442  0.62422448    -0.78700
O534        O  0.43790865  0.10626624  0.60964422    -0.78900
C535        C  0.45853675  0.11969975  0.59135357     1.01700
O536        O  0.39575074  0.15697637  0.52565962    -0.86200
O537        O  0.40229840  0.09175549  0.98556754    -0.83300
C538        C  0.37633172  0.07642427  0.98375511     0.97300
O539        O  0.36153785  0.07349170  0.01058668    -0.83300
O540        O  0.34432893  0.06066548  0.57590791    -0.85900
C541        C  0.33396328  0.09138321  0.58645125     1.01700
O542        O  0.35097153  0.11899162  0.58905070    -0.78700
O543        O  0.40016510  0.16473900  0.58080935    -0.78900
C544        C  0.39521985  0.17798594  0.55108705     1.01700
Cr545      Cr  0.42355009  0.11363134  0.52772344     1.93700
Cr546      Cr  0.38288805  0.04940490  0.54909382     1.93200
Cr547      Cr  0.39465626  0.11247920  0.59826343     1.39100
O548        O  0.40064573  0.09137804  0.55859726    -1.24000
O549        O  0.20454823  0.37714343  0.65434733    -0.86200
O550        O  0.20052586  0.43940749  0.68791548    -0.83300
C551        C  0.19316096  0.47185159  0.69418666     0.97300
O552        O  0.16559146  0.48314096  0.69025911    -0.83300
O553        O  0.15109989  0.48680457  0.62168572    -0.85900
C554        C  0.14524157  0.47709383  0.59168728     1.01800
O555        O  0.13951651  0.44360967  0.58589480    -0.78700
O556        O  0.19244479  0.40654905  0.60694100    -0.78900
C557        C  0.21254907  0.39214017  0.62632036     1.01700
O558        O  0.14786731  0.35283990  0.68665236    -0.86200
O559        O  0.14882043  0.41949341  0.72664270    -0.83300
C560        C  0.12270772  0.43519983  0.72692969     0.97300
O561        O  0.10923410  0.43982843  0.69902891    -0.83300
O562        O  0.09421805  0.44629292  0.63215812    -0.85900
C563        C  0.08589485  0.41464029  0.62176098     1.01700
O564        O  0.10479903  0.38847180  0.61900969    -0.78700
O565        O  0.15596160  0.34629085  0.63197461    -0.78900
C566        C  0.15031429  0.33224035  0.66099512     1.01700
Cr567      Cr  0.17314064  0.39819745  0.68670892     1.93700
Cr568      Cr  0.13143327  0.46113790  0.66045772     1.93200
Cr569      Cr  0.14855430  0.39766601  0.61375329     1.39100
O570        O  0.15086206  0.41917650  0.65375766    -1.24000
O571        O  0.19130838  0.09279436  0.61816681    -0.86200
O572        O  0.13885818  0.05574299  0.59943347    -0.83300
C573        C  0.14336383  0.02244828  0.60825728     0.97300
O574        O  0.14730555  0.01437163  0.63928612    -0.83300
O575        O  0.16346006  0.02381193  0.70707813    -0.85900
C576        C  0.19117708  0.03451387  0.70999995     1.01800
O577        O  0.19883616  0.06619627  0.70105409    -0.78700
O578        O  0.20311182  0.12621012  0.66244573    -0.78900
C579        C  0.21104455  0.10964413  0.63542454     1.01700
O580        O  0.15469561  0.15591293  0.63763091    -0.86200
O581        O  0.10427003  0.11441797  0.62655046    -0.83300
C582        C  0.08437789  0.09055871  0.63269949     0.97300
O583        O  0.09205943  0.05990007  0.64683815    -0.83300
O584        O  0.10766987  0.07059377  0.71238087    -0.85900
C585        C  0.12137091  0.07610306  0.73982292     1.01700
O586        O  0.14776985  0.09029732  0.73826179    -0.78700
O587        O  0.14648715  0.15340656  0.69266434    -0.78900
C588        C  0.14907482  0.17211128  0.66547885     1.01700
Cr589      Cr  0.14764106  0.10336326  0.62346790     1.93700
Cr590      Cr  0.12909682  0.04488579  0.67582416     1.93200
Cr591      Cr  0.17175163  0.10789427  0.69643393     1.39100
O592        O  0.14938427  0.08504813  0.66526599    -1.24000
C593        C  0.12630568  0.27261400  0.68130993    -0.02700
C594        C  0.15016127  0.29138800  0.66460183     0.07000
C595        C  0.17416754  0.27078969  0.64998989    -0.02800
C596        C  0.17334839  0.23212092  0.64994266    -0.02800
C597        C  0.14932184  0.21311293  0.66621761     0.07100
C598        C  0.12633432  0.23358365  0.68295362    -0.03000
Br599      Br  0.09431520  0.20848400  0.70727985    -0.01600
Br600      Br  0.09259900  0.30015339  0.70002634    -0.01600
Br601      Br  0.20658213  0.20585255  0.62844792    -0.01600
Br602      Br  0.20973414  0.29501150  0.63152234    -0.01600
C603        C  0.01062737  0.14273414  0.60706300    -0.02700
C604        C  0.49062444  0.11330104  0.60182565     0.07000
C605        C  0.00113969  0.07673372  0.60670003    -0.02800
C606        C  0.03188301  0.06936573  0.61488898    -0.02800
C607        C  0.05206881  0.09865906  0.62194520     0.07100
C608        C  0.04113125  0.13571289  0.61748927    -0.03000
Br609      Br  0.06676730  0.17811905  0.62512930    -0.01600
Br610      Br  0.49535206  0.19274054  0.60208482    -0.01600
Br611      Br  0.04607579  0.01887766  0.61205355    -0.01600
Br612      Br  0.47359009  0.03578519  0.60205069    -0.01600
C613        C  0.24899201  0.11017166  0.58793539    -0.02700
C614        C  0.24314450  0.10938375  0.62344060     0.07000
C615        C  0.26781304  0.10388662  0.64662005    -0.02800
C616        C  0.29740036  0.09717092  0.63424420    -0.02800
C617        C  0.30248515  0.09496769  0.59884672     0.07100
C618        C  0.27828227  0.10145289  0.57572915    -0.03000
Br619      Br  0.28550875  0.09887469  0.52732006    -0.01600
Br620      Br  0.21794108  0.12719802  0.55591900    -0.01600
Br621      Br  0.33106001  0.09049800  0.66608104    -0.01600
Br622      Br  0.26195815  0.10494694  0.69538261    -0.01600
C623        C  0.25294820  0.39180264  0.58115538    -0.02700
C624        C  0.24525093  0.39421021  0.61607573     0.07000
C625        C  0.26841322  0.40340670  0.64000408    -0.02800
C626        C  0.29732384  0.41483082  0.62854721    -0.02800
C627        C  0.30390181  0.41542401  0.59343067     0.07100
C628        C  0.28217317  0.40225540  0.56998380    -0.03000
Br629      Br  0.29324328  0.39647057  0.52281746    -0.01600
Br630      Br  0.22468881  0.37046077  0.54891888    -0.01600
Br631      Br  0.32834766  0.42929717  0.66110858    -0.01600
Br632      Br  0.26191628  0.39938499  0.68854109    -0.01600
C633        C  0.01756987  0.39974612  0.56355398    -0.02700
C634        C  0.49411300  0.39305041  0.58747380     0.07000
C635        C  0.50191664  0.38999491  0.62252135    -0.02800
C636        C  0.03164880  0.39845742  0.63392571    -0.02800
C637        C  0.05420243  0.40827006  0.61027299     0.07100
C638        C  0.04745445  0.40745111  0.57505972    -0.03000
Br639      Br  0.07932038  0.41740402  0.54249339    -0.01600
Br640      Br  0.00969988  0.39873802  0.51501284    -0.01600
Br641      Br  0.04172061  0.39593446  0.68192139    -0.01600
Br642      Br  0.47275370  0.37058710  0.65460743    -0.01600
C643        C  0.37216406  0.23897653  0.56743339    -0.02700
C644        C  0.39185061  0.21857902  0.54625058     0.07000
C645        C  0.41064695  0.23756360  0.02277451    -0.02800
C646        C  0.41064849  0.27646863  0.02164234    -0.02800
C647        C  0.39204211  0.29679840  0.54406990     0.07100
C648        C  0.37258863  0.27787080  0.56670837    -0.03000
Br649      Br  0.34655888  0.30520775  0.59705976    -0.01600
Br650      Br  0.34391148  0.21367144  0.59694580    -0.01600
Br651      Br  0.43863220  0.30178599  0.99168740    -0.01600
Br652      Br  0.43866800  0.21077653  0.99410826    -0.01600
C653        C  0.36993162  0.44303628  0.91034727    -0.02700
C654        C  0.35534592  0.45111699  0.94166407     0.07000
C655        C  0.33048305  0.47709229  0.94058804    -0.02800
C656        C  0.32442742  0.49817408  0.91068985    -0.02800
C657        C  0.34330308  0.49493701  0.88210355     0.07100
C658        C  0.36481561  0.46577363  0.88119750    -0.03000
Br659      Br  0.38957486  0.45918948  0.84114431    -0.01600
Br660      Br  0.39768637  0.40154003  0.90649692    -0.01600
Br661      Br  0.28961027  0.53130466  0.90817783    -0.01600
Br662      Br  0.30433883  0.48590591  0.97927495    -0.01600
C663        C  0.38215591  0.54669131  0.63242972    -0.02700
C664        C  0.39652337  0.51176612  0.63729305     0.07000
C665        C  0.40797177  0.50232738  0.67002297    -0.02800
C666        C  0.40185075  0.52491530  0.69826447    -0.02800
C667        C  0.38421991  0.55805730  0.69410235     0.07100
C668        C  0.37672669  0.56996310  0.66058161    -0.03000
Br669      Br  0.35981331  0.61873803  0.65299905    -0.01600
Br670      Br  0.36731722  0.56204858  0.58789451    -0.01600
Br671      Br  0.41719558  0.50770893  0.74236201    -0.01600
Br672      Br  0.43247800  0.45800454  0.67639871    -0.01600
C673        C  0.27111373  0.51426494  0.69990874    -0.02700
C674        C  0.27595120  0.51399186  0.73553378     0.07000
C675        C  0.25202909  0.50332305  0.75717636    -0.02800
C676        C  0.22319707  0.49437353  0.74353047    -0.02800
C677        C  0.21827105  0.49428133  0.70794811     0.07100
C678        C  0.24267006  0.50345365  0.68616066    -0.03000
Br679      Br  0.23719235  0.50003666  0.63733062    -0.01600
Br680      Br  0.30306816  0.53063139  0.67002324    -0.01600
Br681      Br  0.19071511  0.48117847  0.77378834    -0.01600
Br682      Br  0.25903912  0.50160700  0.80592891    -0.01600
C683        C  0.24150959  0.00440857  0.70364674    -0.02700
C684        C  0.21641574  0.01221113  0.72486836     0.07000
C685        C  0.22075577  0.01145898  0.76056329    -0.02800
C686        C  0.24952926  0.00203033  0.77480500    -0.02800
C687        C  0.27471976  0.99495525  0.75352814     0.07100
C688        C  0.27058959  0.99656146  0.71786524    -0.03000
Br689      Br  0.30462332  0.98713838  0.68837897    -0.01600
Br690      Br  0.23595451  0.00565584  0.65467141    -0.01600
Br691      Br  0.25459443  0.99813043  0.82377549    -0.01600
Br692      Br  0.18792361  0.02559992  0.79004412    -0.01600
C693        C  0.36585596  0.77383652  0.77980602    -0.02700
C694        C  0.34520697  0.79354052  0.80062323     0.07000
C695        C  0.32187610  0.77380524  0.81756903    -0.02800
C696        C  0.31938979  0.73540712  0.81395700    -0.02800
C697        C  0.34139622  0.71534666  0.79534724     0.07100
C698        C  0.36458965  0.73484205  0.77812016    -0.03000
Br699      Br  0.39573955  0.70819688  0.75373628    -0.01600
Br700      Br  0.39634940  0.79973909  0.75387291    -0.01600
Br701      Br  0.28392203  0.71109961  0.83282574    -0.01600
Br702      Br  0.29154191  0.79876009  0.84477106    -0.01600
C703        C  0.37528820  0.94549039  0.67097279    -0.02700
C704        C  0.38214696  0.95750798  0.70432302     0.07000
C705        C  0.39764993  0.99175750  0.70814299    -0.02800
C706        C  0.40447789  0.01378873  0.67940007    -0.02800
C707        C  0.39403008  0.00387989  0.64667507     0.07100
C708        C  0.38000689  0.96908683  0.64246314    -0.03800
Br709      Br  0.36432754  0.95471696  0.59840691    -0.01600
Br710      Br  0.35989771  0.89640032  0.66415774    -0.01600
Br711      Br  0.42862982  0.05793357  0.68505427    -0.01600
Br712      Br  0.40778703  0.01189626  0.75246473    -0.01600
C713        C  0.37373345  0.06660200  0.91942104    -0.02700
C714        C  0.36564482  0.05567150  0.95289720     0.07000
C715        C  0.34883070  0.02237878  0.95722782    -0.02800
C716        C  0.34151227  0.00036101  0.92898702    -0.02800
C717        C  0.35200814  0.00954191  0.89616984     0.07100
C718        C  0.36708283  0.04366538  0.89125576    -0.03000
Br719      Br  0.38014752  0.05875734  0.84630916    -0.01600
Br720      Br  0.39381843  0.11314198  0.91175079    -0.01600
Br721      Br  0.31604434  0.95755916  0.93538171    -0.01600
Br722      Br  0.33755969  0.00319896  0.00180995    -0.01600
C723        C  0.49334884  0.50055484  0.51025353    -0.02700
C724        C  0.46644614  0.49602480  0.99069517     0.07000
C725        C  0.46755003  0.50079479  0.95504637    -0.02800
C726        C  0.49534994  0.50926911  0.93902554    -0.02800
C727        C  0.02230893  0.51400224  0.95856100     0.07100
C728        C  0.02113659  0.50933681  0.99427894    -0.03000
Br729      Br  0.05711916  0.51616858  0.52174040    -0.01600
Br730      Br  0.49178269  0.49494125  0.55931170    -0.01600
Br731      Br  0.49679609  0.51436275  0.88992593    -0.01600
Br732      Br  0.43107311  0.49526660  0.92804483    -0.01600
C733        C  0.47148209  0.61105365  0.88767942    -0.02700
C734        C  0.49465874  0.61701194  0.86320175     0.07000
C735        C  0.48665298  0.61739338  0.82810790    -0.02800
C736        C  0.45703235  0.60751816  0.81754582    -0.02800
C737        C  0.43490310  0.59834269  0.84192487     0.07100
C738        C  0.44175030  0.60171554  0.87690963    -0.03000
Br739      Br  0.41008545  0.59326800  0.91013734    -0.01600
Br740      Br  0.47943645  0.61504450  0.93604699    -0.01600
Br741      Br  0.44640004  0.60842344  0.76967258    -0.01600
Br742      Br  0.01531792  0.63463415  0.79436178    -0.01600
C743        C  0.19062057  0.59983476  0.82250840    -0.02700
C744        C  0.18504230  0.59752923  0.85781212     0.07000
C745        C  0.20849846  0.60542262  0.88126337    -0.02800
C746        C  0.23785572  0.61418429  0.86949521    -0.02800
C747        C  0.24446754  0.61265331  0.83420968     0.07100
C748        C  0.22035817  0.60654335  0.81062326    -0.03000
Br749      Br  0.22734112  0.60586759  0.76209652    -0.01600
Br750      Br  0.15730393  0.59358690  0.79034075    -0.01600
Br751      Br  0.26825769  0.63099323  0.90181279    -0.01600
Br752      Br  0.20009041  0.60525433  0.92950460    -0.01600
C753        C  0.12648155  0.53847653  0.56776709    -0.02700
C754        C  0.14272058  0.50491490  0.56339178     0.07000
C755        C  0.15392384  0.49635530  0.53082251    -0.02800
C756        C  0.14692364  0.51919796  0.50240633    -0.02800
C757        C  0.12956049  0.55236656  0.50639424     0.07100
C758        C  0.12088823  0.56258410  0.53968862    -0.03000
Br759      Br  0.10012688  0.60899545  0.54705163    -0.01600
Br760      Br  0.10817149  0.54967916  0.61116273    -0.01600
Br761      Br  0.15913949  0.50133082  0.95800052    -0.01600
Br762      Br  0.17882243  0.45259996  0.52474800    -0.01600
C763        C  0.08146350  0.50558389  0.78353008    -0.02700
C764        C  0.09641368  0.49986810  0.81506622     0.07000
C765        C  0.11521914  0.46808684  0.81940514    -0.02800
C766        C  0.12111788  0.44445041  0.79155728    -0.02800
C767        C  0.10977614  0.45333499  0.75840363     0.07100
C768        C  0.08834281  0.48331377  0.75521252    -0.03000
Br769      Br  0.06846493  0.49691264  0.71235697    -0.01600
Br770      Br  0.05035470  0.54361590  0.77962911    -0.01600
Br771      Br  0.14471951  0.39979033  0.79948174    -0.01600
Br772      Br  0.13492411  0.45785849  0.86286929    -0.01600
C773        C  0.21692578  0.90288849  0.89875488    -0.02700
C774        C  0.19344318  0.91256366  0.87551691     0.07000
C775        C  0.19875886  0.91040647  0.84016043    -0.02800
C776        C  0.22795272  0.90104662  0.82798971    -0.02800
C777        C  0.25233267  0.89417597  0.85131028     0.07100
C778        C  0.24606142  0.89288480  0.88670437    -0.03000
Br779      Br  0.27621525  0.87332248  0.91855753    -0.01600
Br780      Br  0.20877098  0.90207291  0.94703602    -0.01600
Br781      Br  0.23343853  0.89756094  0.77927898    -0.01600
Br782      Br  0.16582064  0.92061795  0.80808819    -0.01600
C783        C  0.46020848  0.94322438  0.86219534    -0.02700
C784        C  0.44318862  0.91368363  0.84871580     0.07000
C785        C  0.45749233  0.87855788  0.84545455    -0.02800
C786        C  0.48775169  0.87291965  0.85697374    -0.02800
C787        C  0.50452996  0.90269947  0.86941555     0.07100
C788        C  0.49127608  0.93819917  0.87015560    -0.03000
Br789      Br  0.01568780  0.98057427  0.88106146    -0.01600
Br790      Br  0.44110696  0.98971296  0.87369981    -0.01600
Br791      Br  0.50715743  0.82502915  0.85376612    -0.01600
Br792      Br  0.43689390  0.83795765  0.82406454    -0.01600
C793        C  0.12223557  0.77281354  0.90456438    -0.02700
C794        C  0.09762955  0.79268301  0.91869824     0.07000
C795        C  0.07216504  0.77332384  0.93130017    -0.02800
C796        C  0.07081506  0.73462080  0.92860962    -0.02800
C797        C  0.09493493  0.71483529  0.91337176     0.07100
C798        C  0.12093649  0.73398609  0.90200240    -0.03000
Br799      Br  0.15495431  0.70685241  0.88357255    -0.01600
Br800      Br  0.15792431  0.79891649  0.88934291    -0.01600
Br801      Br  0.03504355  0.70887507  0.44442545    -0.01600
Br802      Br  0.03813781  0.79994650  0.45063019    -0.01600
C803        C  0.08851851  0.02907528  0.77100441    -0.02700
C804        C  0.10878656  0.05969075  0.77237952     0.07000
C805        C  0.12018073  0.07002474  0.80480715    -0.02800
C806        C  0.11621168  0.04666831  0.83371752    -0.02800
C807        C  0.10063923  0.01276724  0.83052620     0.07100
C808        C  0.08537612  0.00535542  0.79953569    -0.03000
Br809      Br  0.05972512  0.96231302  0.79597312    -0.01600
Br810      Br  0.06418611  0.01817480  0.73075327    -0.01600
Br811      Br  0.13416832  0.06021033  0.87691613    -0.01600
Br812      Br  0.14056128  0.11665012  0.80998838    -0.01600
C813        C  0.15140550  0.97878661  0.52159735    -0.02700
C814        C  0.13058674  0.94860715  0.52334270     0.07000
C815        C  0.11814986  0.93944123  0.55567084    -0.02800
C816        C  0.12369656  0.96206752  0.58436636    -0.02800
C817        C  0.14260886  0.99337478  0.58150553     0.07100
C818        C  0.15821369  0.99947875  0.55085476    -0.03000
Br819      Br  0.19025545  0.03574062  0.54946933    -0.01600
Br820      Br  0.16912459  0.99636834  0.97923085    -0.01600
Br821      Br  0.10438344  0.95064170  0.62724381    -0.01600
Br822      Br  0.09352060  0.89593282  0.56140223    -0.01600
C823        C  0.51828389  0.02626824  0.96604939    -0.02700
C824        C  0.02720963  0.99068374  0.97690009     0.07000
C825        C  0.00843548  0.97122225  0.00029237    -0.02800
C826        C  0.48088921  0.98684814  0.51212452    -0.02800
C827        C  0.47163862  0.02205551  0.00065602     0.07100
C828        C  0.49021597  0.04135244  0.97695491    -0.03000
Br829      Br  0.47626325  0.08772476  0.95729479    -0.01600
Br830      Br  0.04408935  0.05410219  0.93566492    -0.01600
Br831      Br  0.45622279  0.96020008  0.54453001    -0.01600
Br832      Br  0.02077340  0.92315040  0.51735908    -0.01600
O833        O  0.55703854  0.91221481  0.36384502    -0.86200
O834        O  0.60892362  0.95100293  0.35047994    -0.83300
C835        C  0.60176034  0.98382559  0.35812456     0.97300
O836        O  0.59657580  0.99165172  0.38879260    -0.83300
O837        O  0.57944178  0.98093408  0.45670984    -0.85900
C838        C  0.55172016  0.97011724  0.45898256     1.01800
O839        O  0.54394323  0.93983256  0.44684880    -0.78700
O840        O  0.54248500  0.87990517  0.40836690    -0.78900
C841        C  0.53621002  0.89757596  0.38095650     1.01700
O842        O  0.59260440  0.84953090  0.38831740    -0.86200
O843        O  0.64339185  0.89246721  0.38263583    -0.83300
C844        C  0.66185897  0.91828635  0.38737562     0.97300
O845        O  0.65291454  0.94906696  0.39940693    -0.83300
O846        O  0.63488838  0.93449050  0.46441979    -0.85900
C847        C  0.61984357  0.93024634  0.49099682     1.01700
O848        O  0.59365214  0.91568924  0.48806600    -0.78700
O849        O  0.59691614  0.85235073  0.44406904    -0.78900
C850        C  0.59667737  0.83362479  0.41705569     1.01700
Cr851      Cr  0.60008601  0.90249237  0.37418638     1.93700
Cr852      Cr  0.61463652  0.96140830  0.42670775     1.93200
Cr853      Cr  0.57152628  0.89798492  0.44483689     1.39100
O854        O  0.59532600  0.92096452  0.41519566    -1.24000
O855        O  0.53639965  0.63249996  0.40090449    -0.86200
O856        O  0.53921110  0.56798044  0.43433167    -0.83300
C857        C  0.54702425  0.53609423  0.44334918     0.97300
O858        O  0.57485921  0.52531338  0.44100100    -0.83300
O859        O  0.58966086  0.51906990  0.37280782    -0.85900
C860        C  0.59403074  0.52849200  0.34228147     1.01800
O861        O  0.59811133  0.56231048  0.33485804    -0.78700
O862        O  0.54681093  0.60192304  0.35481800    -0.78900
C863        C  0.52748410  0.61767944  0.37341611     1.01700
O864        O  0.59318233  0.65316730  0.43440767    -0.86200
O865        O  0.59052087  0.58672164  0.47465377    -0.83300
C866        C  0.61715618  0.57260036  0.47549749     0.97300
O867        O  0.63101916  0.57030717  0.44802421    -0.83300
O868        O  0.64565965  0.56034464  0.38185208    -0.85900
C869        C  0.65369440  0.59149433  0.36971458     1.01700
O870        O  0.63484222  0.61757901  0.36586472    -0.78700
O871        O  0.58570864  0.66164927  0.37928805    -0.78900
C872        C  0.59213747  0.67441307  0.40865416     1.01700
Cr873      Cr  0.56692338  0.60907468  0.43393672     1.93700
Cr874      Cr  0.60892142  0.54657515  0.41054065     1.93200
Cr875      Cr  0.59094846  0.60944703  0.36138371     1.39100
O876        O  0.58901088  0.58805771  0.40179190    -1.24000
O877        O  0.79222482  0.87865270  0.31163045    -0.86200
O878        O  0.79373455  0.94110289  0.27639860    -0.83300
C879        C  0.80045066  0.97318769  0.26783015     0.97300
O880        O  0.82796332  0.98452458  0.27005949    -0.83300
O881        O  0.84390237  0.99061822  0.33822882    -0.85900
C882        C  0.85016489  0.98142457  0.36854663     1.01800
O883        O  0.85665045  0.94801050  0.37550566    -0.78700
O884        O  0.80467901  0.90893931  0.35763372    -0.78900
C885        C  0.78459921  0.89352288  0.33959186     1.01700
O886        O  0.84815744  0.85520172  0.27788668    -0.86200
O887        O  0.84476968  0.92166823  0.23621568    -0.83300
C888        C  0.87075005  0.93713570  0.23527640     0.97300
O889        O  0.88500285  0.94043791  0.26265696    -0.83300
O890        O  0.90082787  0.95018940  0.32789445    -0.85900
C891        C  0.91050936  0.91910920  0.33921023     1.01700
O892        O  0.89229936  0.89289132  0.34387632    -0.78700
O893        O  0.84240687  0.84894257  0.33308990    -0.78900
C894        C  0.84649274  0.83456821  0.30400594     1.01700
Cr895      Cr  0.82201035  0.90019876  0.27758190     1.93700
Cr896      Cr  0.86307996  0.96366739  0.30014215     1.93200
Cr897      Cr  0.84854707  0.90103706  0.34975569     1.39100
O898        O  0.84462058  0.92183982  0.30917209    -1.24000
O899        O  0.79615878  0.59558405  0.34178807    -0.86200
O900        O  0.84768264  0.55738418  0.36354685    -0.83300
C901        C  0.84289776  0.52431274  0.35515359     0.97300
O902        O  0.83983165  0.51637748  0.32417676    -0.83300
O903        O  0.82769144  0.52585001  0.25537796    -0.85900
C904        C  0.80018869  0.53688219  0.25035666     1.01800
O905        O  0.79182626  0.56871480  0.25803773    -0.78700
O906        O  0.78547205  0.62869889  0.29597701    -0.78900
C907        C  0.77686060  0.61245736  0.32321095     1.01700
O908        O  0.83314565  0.65772435  0.32294231    -0.86200
O909        O  0.88359366  0.61556609  0.33559428    -0.83300
C910        C  0.90329411  0.59069821  0.33114636     0.97300
O911        O  0.89596471  0.55944525  0.31911890    -0.83300
O912        O  0.88317868  0.57184393  0.25299176    -0.85900
C913        C  0.87070285  0.57671454  0.22467186     1.01700
O914        O  0.84452043  0.59216838  0.22399081    -0.78700
O915        O  0.84318007  0.65586119  0.26840001    -0.78900
C916        C  0.83998688  0.67422662  0.29540963     1.01700
Cr917      Cr  0.83994822  0.60521972  0.33804400     1.93700
Cr918      Cr  0.86016542  0.54612536  0.28830644     1.93200
Cr919      Cr  0.81844583  0.61024517  0.26391631     1.39100
O920        O  0.83946473  0.58682905  0.29672517    -1.24000
O921        O  0.94254667  0.41097063  0.09580424    -0.86200
O922        O  0.89106441  0.45039342  0.11666524    -0.83300
C923        C  0.89712207  0.48361145  0.10960260     0.97300
O924        O  0.90193174  0.49261804  0.07911560    -0.83300
O925        O  0.91449937  0.48709898  0.01047653    -0.85900
C926        C  0.94144668  0.47444521  0.00580188     1.01800
O927        O  0.94823011  0.44167998  0.01287595    -0.78700
O928        O  0.95188773  0.37947249  0.04967833    -0.78900
C929        C  0.96130726  0.39426453  0.07707695     1.01700
O930        O  0.90360235  0.35135227  0.07447726    -0.86200
O931        O  0.85431172  0.39591920  0.08652961    -0.83300
C932        C  0.83552702  0.42207590  0.08237559     0.97300
O933        O  0.84376196  0.45335926  0.07035815    -0.83300
O934        O  0.85681914  0.44760170  0.50269280    -0.85900
C935        C  0.86897569  0.43810352  0.47544764     1.01700
O936        O  0.89466585  0.42145256  0.47709910    -0.78700
O937        O  0.89315345  0.35760779  0.01999900    -0.78900
C938        C  0.89554255  0.33736477  0.04631731     1.01700
Cr939      Cr  0.89821285  0.40370480  0.09040634     1.93700
Cr940      Cr  0.88069127  0.46698508  0.04128444     1.93200
Cr941      Cr  0.91991362  0.40136995  0.01718458     1.39100
O942        O  0.89934832  0.42426724  0.04940018    -1.24000
O943        O  0.95165698  0.13582293  0.06325145    -0.86200
O944        O  0.95296913  0.07355072  0.02836483    -0.83300
C945        C  0.94636535  0.04229756  0.01757992     0.97300
O946        O  0.91898023  0.03028689  0.02006159    -0.83300
O947        O  0.90161516  0.02240255  0.08832001    -0.85900
C948        C  0.89495726  0.03168762  0.11824758     1.01800
O949        O  0.88753223  0.06489141  0.12420684    -0.78700
O950        O  0.93789513  0.10626179  0.10964214    -0.78900
C951        C  0.95852871  0.11968726  0.09135428     1.01700
O952        O  0.89576195  0.15697066  0.02564624    -0.86200
O953        O  0.90229569  0.09176272  0.48557377    -0.83300
C954        C  0.87633398  0.07641932  0.48376046     0.97300
O955        O  0.86153765  0.07348375  0.51059137    -0.83300
O956        O  0.84432359  0.06066042  0.07589565    -0.85900
C957        C  0.83395426  0.09137808  0.08643524     1.01700
O958        O  0.85096066  0.11898908  0.08902890    -0.78700
O959        O  0.90016025  0.16473382  0.08079768    -0.78900
C960        C  0.89522618  0.17798021  0.05107336     1.01700
Cr961      Cr  0.92355507  0.11362026  0.02771663     1.93700
Cr962      Cr  0.88288510  0.04940132  0.04908243     1.93200
Cr963      Cr  0.89464570  0.11247582  0.09825050     1.39100
O964        O  0.90064421  0.09137210  0.05858775    -1.24000
O965        O  0.70457364  0.37710985  0.15436513    -0.86200
O966        O  0.70055041  0.43937606  0.18792681    -0.83300
C967        C  0.69318790  0.47182370  0.19418548     0.97300
O968        O  0.66562094  0.48311723  0.19025253    -0.83300
O969        O  0.65114087  0.48676536  0.12167884    -0.85900
C970        C  0.64527267  0.47705192  0.09168379     1.01800
O971        O  0.63954512  0.44356701  0.08589864    -0.78700
O972        O  0.69247207  0.40650648  0.10695290    -0.78900
C973        C  0.71257589  0.39210210  0.12633581     1.01700
O974        O  0.64788740  0.35281294  0.18666951    -0.86200
O975        O  0.64883884  0.41947989  0.22665098    -0.83300
C976        C  0.62272995  0.43519798  0.22693000     0.97300
O977        O  0.60925951  0.43981893  0.19902650    -0.83300
O978        O  0.59425192  0.44626984  0.13215401    -0.85900
C979        C  0.58592502  0.41461586  0.12176527     1.01700
O980        O  0.60482526  0.38844179  0.11902239    -0.78700
O981        O  0.65598513  0.34625628  0.13199360    -0.78900
C982        C  0.65033533  0.33220941  0.16101481     1.01700
Cr983      Cr  0.67316265  0.39817027  0.18672255     1.93700
Cr984      Cr  0.63146543  0.46111362  0.16045365     1.93200
Cr985      Cr  0.64858115  0.39762853  0.11376476     1.39100
O986        O  0.65088895  0.41914635  0.15376537    -1.24000
O987        O  0.69129292  0.09275810  0.11816911    -0.86200
O988        O  0.63883710  0.05571537  0.09943519    -0.83300
C989        C  0.64334650  0.02241995  0.10825392     0.97300
O990        O  0.64728687  0.01433859  0.13928199    -0.83300
O991        O  0.66343478  0.02376733  0.20707620    -0.85900
C992        C  0.69115049  0.03446918  0.21000053     1.01800
O993        O  0.69881145  0.06615225  0.20106052    -0.78700
O994        O  0.70310159  0.12616246  0.16245425    -0.78900
C995        C  0.71103182  0.10960095  0.13542929     1.01700
O996        O  0.65468738  0.15588007  0.13763972    -0.86200
O997        O  0.60425497  0.11438908  0.12656180    -0.83300
C998        C  0.58436218  0.09052948  0.13271004     0.97300
O999        O  0.59204372  0.05986827  0.14684146    -0.83300
O1000       O  0.60764967  0.07054490  0.21238672    -0.85900
C1001       C  0.62134885  0.07606885  0.23982781     1.01700
O1002       O  0.64774755  0.09026355  0.23826482    -0.78700
O1003       O  0.64647751  0.15337144  0.19267193    -0.78900
C1004       C  0.64906972  0.17207807  0.16548868     1.01700
Cr1005     Cr  0.64762538  0.10333143  0.12347429     1.93700
Cr1006     Cr  0.62907767  0.04484739  0.17582437     1.93200
Cr1007     Cr  0.67173481  0.10785393  0.19643995     1.39100
O1008       O  0.64936663  0.08501171  0.16527100    -1.24000
C1009       C  0.62632387  0.27258610  0.18133808    -0.02700
C1010       C  0.65017831  0.29135622  0.16462359     0.07000
C1011       C  0.67417819  0.27075270  0.15000412    -0.02800
C1012       C  0.67335444  0.23208370  0.14995836    -0.02800
C1013       C  0.64932499  0.21308011  0.16623213     0.07100
C1014       C  0.62634369  0.23355521  0.18297420    -0.03000
Br1015     Br  0.59432036  0.20846057  0.20729813    -0.01600
Br1016     Br  0.59263074  0.30013180  0.20007624    -0.01600
Br1017     Br  0.70658781  0.20580763  0.12847110    -0.01600
Br1018     Br  0.70974192  0.29496766  0.13152112    -0.01600
C1019       C  0.51061922  0.14271253  0.10706730    -0.02700
C1020       C  0.99061270  0.11328289  0.10183461     0.07000
C1021       C  0.50112004  0.07671399  0.10672170    -0.02800
C1022       C  0.53186064  0.06933999  0.11491902    -0.02800
C1023       C  0.55205254  0.09863221  0.12196213     0.07100
C1024       C  0.54112018  0.13568724  0.11750020    -0.03000
Br1025     Br  0.56675726  0.17809087  0.12514933    -0.01600
Br1026     Br  0.99535296  0.19272141  0.10207166    -0.01600
Br1027     Br  0.54603688  0.01884055  0.11212549    -0.01600
Br1028     Br  0.97356330  0.03577184  0.10207613    -0.01600
C1029       C  0.74897877  0.11015849  0.08793649    -0.02700
C1030       C  0.74313198  0.10934269  0.12344176     0.07000
C1031       C  0.76780220  0.10382990  0.14661619    -0.02800
C1032       C  0.79739069  0.09713138  0.13423477    -0.02800
C1033       C  0.80247563  0.09495706  0.09883531     0.07100
C1034       C  0.77827073  0.10145673  0.07572320    -0.03000
Br1035     Br  0.78549735  0.09892269  0.02731183    -0.01600
Br1036     Br  0.71792407  0.12720040  0.05593195    -0.01600
Br1037     Br  0.83105189  0.09044804  0.16606727    -0.01600
Br1038     Br  0.76194755  0.10484384  0.19537982    -0.01600
C1039       C  0.75297796  0.39177113  0.08117180    -0.02700
C1040       C  0.74527881  0.39417633  0.11609228     0.07000
C1041       C  0.76843822  0.40338413  0.14002016    -0.02800
C1042       C  0.79734398  0.41482704  0.12856293    -0.02800
C1043       C  0.80392637  0.41540965  0.09344755     0.07100
C1044       C  0.78220275  0.40222757  0.07000159    -0.03000
Br1045     Br  0.79327871  0.39643477  0.02283758    -0.01600
Br1046     Br  0.72472020  0.37043376  0.04893088    -0.01600
Br1047     Br  0.82835307  0.42934306  0.16112136    -0.01600
Br1048     Br  0.76194561  0.39934645  0.18855671    -0.01600
C1049       C  0.51759865  0.39971423  0.06356495    -0.02700
C1050       C  0.99414087  0.39303627  0.08748856     0.07000
C1051       C  0.00194373  0.39000037  0.12253769    -0.02800
C1052       C  0.53167593  0.39846582  0.13393764    -0.02800
C1053       C  0.55423253  0.40825053  0.11027951     0.07100
C1054       C  0.54748530  0.40741328  0.07506691    -0.03000
Br1055     Br  0.57935456  0.41733742  0.04249690    -0.01600
Br1056     Br  0.50972687  0.39869336  0.01502431    -0.01600
Br1057     Br  0.54174273  0.39599026  0.18193636    -0.01600
Br1058     Br  0.97278062  0.37061439  0.15463462    -0.01600
C1059       C  0.87215930  0.23897088  0.06739519    -0.02700
C1060       C  0.89186527  0.21857284  0.04623563     0.07000
C1061       C  0.91060571  0.23757167  0.52276225    -0.02800
C1062       C  0.91059993  0.27647683  0.52162417    -0.02800
C1063       C  0.89207251  0.29679062  0.04406887     0.07100
C1064       C  0.87259225  0.27786473  0.06667862    -0.03000
Br1065     Br  0.84653681  0.30520383  0.09700054    -0.01600
Br1066     Br  0.84386779  0.21366616  0.09685992    -0.01600
Br1067     Br  0.93855387  0.30179581  0.49163511    -0.01600
Br1068     Br  0.93860455  0.21078930  0.49406580    -0.01600
C1069       C  0.86992175  0.44305584  0.41033001    -0.02700
C1070       C  0.85532628  0.45113372  0.44164029     0.07000
C1071       C  0.83045841  0.47710422  0.44055344    -0.02800
C1072       C  0.82441151  0.49818512  0.41065224    -0.02800
C1073       C  0.84329720  0.49495155  0.38207421     0.07100
C1074       C  0.86481496  0.46579298  0.38117806    -0.03000
Br1075     Br  0.88959390  0.45921990  0.34113857    -0.01600
Br1076     Br  0.89768021  0.40156146  0.40648744    -0.01600
Br1077     Br  0.78959222  0.53131175  0.40812660    -0.01600
Br1078     Br  0.80429463  0.48590252  0.47922556    -0.01600
C1079       C  0.88214944  0.54668692  0.13240624    -0.02700
C1080       C  0.89654362  0.51177904  0.13727773     0.07000
C1081       C  0.90802297  0.50237446  0.17000182    -0.02800
C1082       C  0.90191654  0.52498286  0.19823377    -0.02800
C1083       C  0.88424720  0.55809616  0.19407130     0.07100
C1084       C  0.87671879  0.56997009  0.16054972    -0.03000
Br1085     Br  0.85975404  0.61871719  0.15295039    -0.01600
Br1086     Br  0.86727592  0.56200073  0.08787212    -0.01600
Br1087     Br  0.91735020  0.50785161  0.24231785    -0.01600
Br1088     Br  0.93254953  0.45806896  0.17638176    -0.01600
C1089       C  0.77112991  0.51425968  0.19987487    -0.02700
C1090       C  0.77597889  0.51398240  0.23549785     0.07000
C1091       C  0.75206812  0.50330182  0.25715070    -0.02800
C1092       C  0.72323402  0.49434557  0.24351681    -0.02800
C1093       C  0.71829759  0.49425591  0.20793639     0.07100
C1094       C  0.74268647  0.50343553  0.18613823    -0.03000
Br1095     Br  0.73719702  0.50000682  0.13731039    -0.01600
Br1096     Br  0.80306490  0.53065630  0.16997738    -0.01600
Br1097     Br  0.69076345  0.48113856  0.27378743    -0.01600
Br1098     Br  0.75909363  0.50159042  0.30590076    -0.01600
C1099       C  0.74147738  0.00436675  0.20363792    -0.02700
C1100       C  0.71638669  0.01216568  0.22486441     0.07000
C1101       C  0.72073190  0.01142602  0.26055811    -0.02800
C1102       C  0.74951207  0.00202532  0.27479510    -0.02800
C1103       C  0.77469927  0.99495227  0.25351366     0.07100
C1104       C  0.77056116  0.99653549  0.21785114    -0.03000
Br1105     Br  0.80458726  0.98709767  0.18835801    -0.01600
Br1106     Br  0.73591372  0.00560833  0.15466309    -0.01600
Br1107     Br  0.75459032  0.99815121  0.32376569    -0.01600
Br1108     Br  0.68789441  0.02554088  0.29004257    -0.01600
C1109       C  0.86583892  0.77384193  0.27980130    -0.02700
C1110       C  0.84517427  0.79354554  0.30059928     0.07000
C1111       C  0.82183165  0.77381097  0.31752475    -0.02800
C1112       C  0.81934861  0.73541315  0.31391009    -0.02800
C1113       C  0.84137420  0.71535350  0.29532826     0.07100
C1114       C  0.86458532  0.73484692  0.27813100    -0.03000
Br1115     Br  0.89578345  0.70819727  0.25382669    -0.01600
Br1116     Br  0.89632623  0.79974519  0.25386073    -0.01600
Br1117     Br  0.78386565  0.71110302  0.33273918    -0.01600
Br1118     Br  0.79147746  0.79876704  0.34469741    -0.01600
C1119       C  0.87526664  0.94548788  0.17095377    -0.02700
C1120       C  0.88210068  0.95751588  0.20430687     0.07000
C1121       C  0.89757281  0.99178296  0.20813594    -0.02800
C1122       C  0.90442265  0.01380530  0.17939583    -0.02800
C1123       C  0.89400715  0.00388075  0.14666246     0.07100
C1124       C  0.87999477  0.96908195  0.14244462    -0.03800
Br1125     Br  0.86433987  0.95470182  0.09838021    -0.01600
Br1126     Br  0.85988611  0.89639384  0.16413518    -0.01600
Br1127     Br  0.92855756  0.05796089  0.18506908    -0.01600
Br1128     Br  0.90761626  0.01196591  0.25246546    -0.01600
C1129       C  0.87371007  0.06661081  0.41942164    -0.02700
C1130       C  0.86565677  0.05565686  0.45290256     0.07000
C1131       C  0.84888029  0.02233852  0.45723804    -0.02800
C1132       C  0.84154670  0.00033038  0.42899512    -0.02800
C1133       C  0.85200329  0.00953829  0.39616671     0.07100
C1134       C  0.86705127  0.04368064  0.39125212    -0.03000
Br1135     Br  0.88006593  0.05881243  0.34629820    -0.01600
Br1136     Br  0.89376102  0.11317264  0.41175355    -0.01600
Br1137     Br  0.81610753  0.95750661  0.43540699    -0.01600
Br1138     Br  0.83769407  0.00311000  0.50182985    -0.01600
C1139       C  0.99337288  0.50053065  0.01024520    -0.02700
C1140       C  0.96643117  0.49603344  0.49069311     0.07000
C1141       C  0.96754828  0.50078859  0.45504371    -0.02800
C1142       C  0.99535304  0.50925953  0.43903217    -0.02800
C1143       C  0.52230270  0.51401365  0.45857722     0.07100
C1144       C  0.52111538  0.50937373  0.49429771    -0.03000
Br1145     Br  0.55715949  0.51606947  0.02170372    -0.01600
Br1146     Br  0.99182231  0.49491784  0.05930418    -0.01600
Br1147     Br  0.99681606  0.51433095  0.38993176    -0.01600
Br1148     Br  0.93108084  0.49524836  0.42802933    -0.01600
C1149       C  0.97146654  0.61105339  0.38767324    -0.02700
C1150       C  0.99464515  0.61702552  0.36320079     0.07000
C1151       C  0.98664229  0.61742875  0.32810568    -0.02800
C1152       C  0.95701949  0.60757148  0.31753615    -0.02800
C1153       C  0.93488919  0.59837994  0.34190871     0.07100
C1154       C  0.94173534  0.60172321  0.37689589    -0.03000
Br1155     Br  0.91007005  0.59324186  0.41011564    -0.01600
Br1156     Br  0.97941782  0.61501202  0.43604359    -0.01600
Br1157     Br  0.94638636  0.60851950  0.26966309    -0.01600
Br1158     Br  0.51531718  0.63466304  0.29436685    -0.01600
C1159       C  0.69060140  0.59981230  0.32247563    -0.02700
C1160       C  0.68502531  0.59752071  0.35778080     0.07000
C1161       C  0.70848589  0.60541455  0.38122630    -0.02800
C1162       C  0.73784243  0.61417127  0.36945209    -0.02800
C1163       C  0.74445154  0.61263020  0.33416613     0.07100
C1164       C  0.72034007  0.60650851  0.31058503    -0.03000
Br1165     Br  0.72732345  0.60579361  0.26205956    -0.01600
Br1166     Br  0.65728035  0.59356454  0.29031401    -0.01600
Br1167     Br  0.76824800  0.63098516  0.40176314    -0.01600
Br1168     Br  0.70008541  0.60525131  0.42946905    -0.01600
C1169       C  0.62650991  0.53844038  0.06777516    -0.02700
C1170       C  0.64273473  0.50486999  0.06338669     0.07000
C1171       C  0.65389043  0.49629051  0.03080123    -0.02800
C1172       C  0.64685351  0.51911981  0.00238754    -0.02800
C1173       C  0.62953403  0.55231704  0.00639574     0.07100
C1174       C  0.62089703  0.56254517  0.03969861    -0.03000
Br1175     Br  0.60014348  0.60895850  0.04707402    -0.01600
Br1176     Br  0.60824881  0.54966443  0.11119209    -0.01600
Br1177     Br  0.65935076  0.50148107  0.45804295    -0.01600
Br1178     Br  0.67877787  0.45253011  0.02470051    -0.01600
C1179       C  0.58147504  0.50560169  0.28350911    -0.02700
C1180       C  0.59640158  0.49987553  0.31505762     0.07000
C1181       C  0.61520241  0.46809120  0.31940498    -0.02800
C1182       C  0.62111647  0.44445870  0.29155766    -0.02800
C1183       C  0.60979677  0.45334992  0.25839622     0.07100
C1184       C  0.58837615  0.48334135  0.25519116    -0.03000
Br1185     Br  0.56855377  0.49698067  0.21231445    -0.01600
Br1186     Br  0.55036585  0.54363263  0.27959149    -0.01600
Br1187     Br  0.64470556  0.39979215  0.29949473    -0.01600
Br1188     Br  0.63487676  0.45784981  0.36288381    -0.01600
C1189       C  0.71690410  0.90289852  0.39875133    -0.02700
C1190       C  0.69341174  0.91254427  0.37551585     0.07000
C1191       C  0.69872073  0.91037087  0.34015874    -0.02800
C1192       C  0.72791972  0.90103838  0.32798403    -0.02800
C1193       C  0.75230577  0.89418521  0.35130169     0.07100
C1194       C  0.74603923  0.89289876  0.38669683    -0.03000
Br1195     Br  0.77619828  0.87334334  0.41854680    -0.01600
Br1196     Br  0.70876457  0.90211790  0.44703582    -0.01600
Br1197     Br  0.73340532  0.89757447  0.27927171    -0.01600
Br1198     Br  0.66576566  0.92052057  0.30809148    -0.01600
C1199       C  0.96016200  0.94322363  0.36222563    -0.02700
C1200       C  0.94316116  0.91368779  0.34870866     0.07000
C1201       C  0.95747923  0.87857528  0.34542301    -0.02800
C1202       C  0.98773409  0.87294043  0.35695815    -0.02800
C1203       C  0.00449502  0.90271595  0.36943831     0.07100
C1204       C  0.99122801  0.93820814  0.37019890    -0.03000
Br1205     Br  0.51562075  0.98058867  0.38113651    -0.01600
Br1206     Br  0.94103339  0.98968805  0.37375884    -0.01600
Br1207     Br  0.00715835  0.82506400  0.35371959    -0.01600
Br1208     Br  0.93690638  0.83799608  0.32397222    -0.01600
C1209       C  0.62218794  0.77283115  0.40454115    -0.02700
C1210       C  0.59759182  0.79268878  0.41870913     0.07000
C1211       C  0.57214168  0.77331894  0.43133366    -0.02800
C1212       C  0.57080041  0.73461517  0.42864213    -0.02800
C1213       C  0.59491027  0.71484234  0.41337056     0.07100
C1214       C  0.62089526  0.73400481  0.40197273    -0.03000
Br1215     Br  0.65490205  0.70688794  0.38349838    -0.01600
Br1216     Br  0.65785380  0.79894926  0.38927532    -0.01600
Br1217     Br  0.53503258  0.70890004  0.94434508    -0.01600
Br1218     Br  0.53815881  0.79996516  0.95057556    -0.01600
C1219       C  0.58847816  0.02907386  0.27102636    -0.02700
C1220       C  0.60875997  0.05967627  0.27239070     0.07000
C1221       C  0.62016510  0.07000951  0.30481413    -0.02800
C1222       C  0.61619298  0.04666039  0.33372868    -0.02800
C1223       C  0.60061318  0.01276404  0.33054388     0.07100
C1224       C  0.58534046  0.00535452  0.29955858    -0.03000
Br1225     Br  0.55968457  0.96231564  0.29600336    -0.01600
Br1226     Br  0.56411508  0.01819800  0.23079223    -0.01600
Br1227     Br  0.63415360  0.06020501  0.37692461    -0.01600
Br1228     Br  0.64056455  0.11662383  0.30998530    -0.01600
C1229       C  0.65142451  0.97877166  0.02159046    -0.02700
C1230       C  0.63061153  0.94858630  0.02332652     0.07000
C1231       C  0.61817770  0.93940292  0.05565086    -0.02800
C1232       C  0.62370469  0.96203149  0.08434906    -0.02800
C1233       C  0.64260332  0.99335213  0.08149619     0.07100
C1234       C  0.65821417  0.99946787  0.05085060    -0.03000
Br1235     Br  0.69023617  0.03575504  0.04947418    -0.01600
Br1236     Br  0.66907774  0.99639520  0.47922618    -0.01600
Br1237     Br  0.60437772  0.95059300  0.12721486    -0.01600
Br1238     Br  0.59359273  0.89585599  0.06137288    -0.01600
C1239       C  0.01829271  0.02628820  0.46608626    -0.02700
C1240       C  0.52720812  0.99069842  0.47692750     0.07000
C1241       C  0.50842457  0.97123100  0.50030619    -0.02800
C1242       C  0.98089824  0.98683646  0.01211258    -0.02800
C1243       C  0.97163789  0.02207040  0.50067237     0.07100
C1244       C  0.99022180  0.04137062  0.47698070    -0.03000
Br1245     Br  0.97627170  0.08774114  0.45731342    -0.01600
Br1246     Br  0.54411311  0.05413096  0.43572349    -0.01600
Br1247     Br  0.95624038  0.96019034  0.04452683    -0.01600
Br1248     Br  0.52080688  0.92316006  0.01736813    -0.01600
O1249       O  0.55707372  0.91219305  0.86381629    -0.86200
O1250       O  0.60895043  0.95100346  0.85046199    -0.83300
C1251       C  0.60178285  0.98382581  0.85810555     0.97300
O1252       O  0.59659070  0.99165028  0.88877229    -0.83300
O1253       O  0.57944775  0.98092618  0.95668717    -0.85900
C1254       C  0.55172724  0.97010277  0.95895877     1.01800
O1255       O  0.54395767  0.93981232  0.94682976    -0.78700
O1256       O  0.54252141  0.87988531  0.90834014    -0.78900
C1257       C  0.53624587  0.89755350  0.88092858     1.01700
O1258       O  0.59264999  0.84952214  0.88829793    -0.86200
O1259       O  0.64342692  0.89247649  0.88262658    -0.83300
C1260       C  0.66188790  0.91830111  0.88736844     0.97300
O1261       O  0.65293525  0.94908108  0.89939363    -0.83300
O1262       O  0.63490682  0.93449566  0.96439975    -0.85900
C1263       C  0.61986512  0.93023905  0.99097663     1.01700
O1264       O  0.59367417  0.91568115  0.98804476    -0.78700
O1265       O  0.59695612  0.85234862  0.94404899    -0.78900
C1266       C  0.59672168  0.83361914  0.91703809     1.01700
Cr1267     Cr  0.60012119  0.90248755  0.87416703     1.93700
Cr1268     Cr  0.61465130  0.96141034  0.92668915     1.93200
Cr1269     Cr  0.57155381  0.89797349  0.94481458     1.39100
O1270       O  0.59534979  0.92096125  0.91517459    -1.24000
O1271       O  0.53641459  0.63249702  0.90089928    -0.86200
O1272       O  0.53921760  0.56797097  0.93431919    -0.83300
C1273       C  0.54703054  0.53608383  0.94333580     0.97300
O1274       O  0.57486701  0.52530606  0.94099762    -0.83300
O1275       O  0.58968841  0.51906114  0.87281630    -0.85900
C1276       C  0.59405261  0.52848448  0.84228965     1.01800
O1277       O  0.59812994  0.56230312  0.83486458    -0.78700
O1278       O  0.54682677  0.60191523  0.85481718    -0.78900
C1279       C  0.52749882  0.61767219  0.87341359     1.01700
O1280       O  0.59319043  0.65316057  0.93441496    -0.86200
O1281       O  0.59051382  0.58670662  0.97466102    -0.83300
C1282       C  0.61714747  0.57258153  0.97550990     0.97300
O1283       O  0.63102233  0.57030691  0.94804266    -0.83300
O1284       O  0.64567956  0.56034541  0.88187560    -0.85900
C1285       C  0.65371121  0.59149551  0.86973737     1.01700
O1286       O  0.63485581  0.61757458  0.86587684    -0.78700
O1287       O  0.58572509  0.66164187  0.87929305    -0.78900
C1288       C  0.59215429  0.67440526  0.90865933     1.01700
Cr1289     Cr  0.56692967  0.60906694  0.93393700     1.93700
Cr1290     Cr  0.60893658  0.54657133  0.91055184     1.93200
Cr1291     Cr  0.59096430  0.60943983  0.86138900     1.39100
O1292       O  0.58902357  0.58805111  0.90179705    -1.24000
O1293       O  0.79225462  0.87864499  0.81164335    -0.86200
O1294       O  0.79375853  0.94109968  0.77640960    -0.83300
C1295       C  0.80047217  0.97318686  0.76784468     0.97300
O1296       O  0.82798516  0.98452362  0.77007504    -0.83300
O1297       O  0.84391308  0.99061099  0.83824204    -0.85900
C1298       C  0.85017581  0.98142196  0.86855998     1.01800
O1299       O  0.85666615  0.94801092  0.87552517    -0.78700
O1300       O  0.80470338  0.90893014  0.85764966    -0.78900
C1301       C  0.78462655  0.89351248  0.83960522     1.01700
O1302       O  0.84818919  0.85519851  0.77790546    -0.86200
O1303       O  0.84480539  0.92167030  0.73623369    -0.83300
C1304       C  0.87078606  0.93713936  0.73529680     0.97300
O1305       O  0.88503281  0.94044719  0.76267997    -0.83300
O1306       O  0.90084963  0.95019443  0.82791812    -0.85900
C1307       C  0.91053341  0.91911320  0.83923014     1.01700
O1308       O  0.89232324  0.89289718  0.84389988    -0.78700
O1309       O  0.84243997  0.84894147  0.83310904    -0.78900
C1310       C  0.84652546  0.83456545  0.80402589     1.01700
Cr1311     Cr  0.82204009  0.90019629  0.77759680     1.93700
Cr1312     Cr  0.86310136  0.96366858  0.80016158     1.93200
Cr1313     Cr  0.84857151  0.90103629  0.84977483     1.39100
O1314       O  0.84464608  0.92183817  0.80918964    -1.24000
O1315       O  0.79617241  0.59559594  0.84183256    -0.86200
O1316       O  0.84768938  0.55737160  0.86357791    -0.83300
C1317       C  0.84289952  0.52430095  0.85518504     0.97300
O1318       O  0.83982501  0.51636665  0.82420873    -0.83300
O1319       O  0.82767134  0.52584282  0.75541216    -0.85900
C1320       C  0.80016802  0.53688025  0.75040089     1.01800
O1321       O  0.79181292  0.56871271  0.75809253    -0.78700
O1322       O  0.78548834  0.62871176  0.79602211    -0.78900
C1323       C  0.77687626  0.61247468  0.82325705     1.01700
O1324       O  0.83317632  0.65771876  0.82297037    -0.86200
O1325       O  0.88361081  0.61554088  0.83561738    -0.83300
C1326       C  0.90330514  0.59066691  0.83116803     0.97300
O1327       O  0.89596724  0.55941636  0.81914101    -0.83300
O1328       O  0.88316937  0.57182414  0.75301727    -0.85900
C1329       C  0.87068645  0.57668730  0.72470057     1.01700
O1330       O  0.84450530  0.59214450  0.72402288    -0.78700
O1331       O  0.84318937  0.65584778  0.76842290    -0.78900
C1332       C  0.84000756  0.67421777  0.79543202     1.01700
Cr1333     Cr  0.83996409  0.60521173  0.83807653     1.93700
Cr1334     Cr  0.86015793  0.54610883  0.78833530     1.93200
Cr1335     Cr  0.81844528  0.61023719  0.76395415     1.39100
O1336       O  0.83946746  0.58681871  0.79675897    -1.24000
O1337       O  0.94251814  0.41098102  0.59579253    -0.86200
O1338       O  0.89102996  0.45039390  0.61665704    -0.83300
C1339       C  0.89709747  0.48361084  0.60960645     0.97300
O1340       O  0.90191312  0.49262465  0.57912256    -0.83300
O1341       O  0.91448647  0.48712294  0.51048362    -0.85900
C1342       C  0.94142689  0.47445600  0.50579272     1.01800
O1343       O  0.94820012  0.44168290  0.51284611    -0.78700
O1344       O  0.95185952  0.37948683  0.54966282    -0.78900
C1345       C  0.96127898  0.39427803  0.57706261     1.01700
O1346       O  0.90357984  0.35136312  0.57446746    -0.86200
O1347       O  0.85428447  0.39592877  0.58650825    -0.83300
C1348       C  0.83550164  0.42208815  0.58235674     0.97300
O1349       O  0.84373840  0.45337363  0.57034414    -0.83300
O1350       O  0.85683891  0.44754928  0.00271322    -0.85900
C1351       C  0.86900402  0.43807629  0.97546248     1.01700
O1352       O  0.89470240  0.42145056  0.97711060    -0.78700
O1353       O  0.89311656  0.35761654  0.51999459    -0.78900
C1354       C  0.89551221  0.33737364  0.54631230     1.01700
Cr1355     Cr  0.89818460  0.40371394  0.59039221     1.93700
Cr1356     Cr  0.88067230  0.46700730  0.54127969     1.93200
Cr1357     Cr  0.91988011  0.40137771  0.51717017     1.39100
O1358       O  0.89932134  0.42428109  0.54938715    -1.24000
O1359       O  0.95165633  0.13583767  0.56325383    -0.86200
O1360       O  0.95296572  0.07356697  0.52836917    -0.83300
C1361       C  0.94636399  0.04231116  0.51758981     0.97300
O1362       O  0.91898149  0.03029482  0.52007448    -0.83300
O1363       O  0.90162131  0.02240815  0.58833137    -0.85900
C1364       C  0.89497027  0.03169112  0.61826136     1.01800
O1365       O  0.88754709  0.06489484  0.62422423    -0.78700
O1366       O  0.93790856  0.10626645  0.60964399    -0.78900
C1367       C  0.95853673  0.11969992  0.59135340     1.01700
O1368       O  0.89575096  0.15697644  0.52565915    -0.86200
O1369       O  0.90229906  0.09175536  0.98556790    -0.83300
C1370       C  0.87633241  0.07642415  0.98375536     0.97300
O1371       O  0.86153832  0.07349180  0.01058682    -0.83300
O1372       O  0.84432862  0.06066594  0.57590772    -0.85900
C1373       C  0.83396306  0.09138371  0.58645110     1.01700
O1374       O  0.85097139  0.11899205  0.58905046    -0.78700
O1375       O  0.90016508  0.16473919  0.58080892    -0.78900
C1376       C  0.89521995  0.17798603  0.55108656     1.01700
Cr1377     Cr  0.92355012  0.11363128  0.52772321     1.93700
Cr1378     Cr  0.88288775  0.04940515  0.54909365     1.93200
Cr1379     Cr  0.89465615  0.11247951  0.59826314     1.39100
O1380       O  0.90064558  0.09137824  0.55859703    -1.24000
O1381       O  0.70454799  0.37714373  0.65434712    -0.86200
O1382       O  0.70052579  0.43940757  0.68791562    -0.83300
C1383       C  0.69316115  0.47185182  0.69418650     0.97300
O1384       O  0.66559179  0.48314155  0.69025856    -0.83300
O1385       O  0.65110022  0.48680490  0.62168510    -0.85900
C1386       C  0.64524156  0.47709412  0.59168673     1.01800
O1387       O  0.63951635  0.44360998  0.58589444    -0.78700
O1388       O  0.69244464  0.40654928  0.60694071    -0.78900
C1389       C  0.71254889  0.39214042  0.62632015     1.01700
O1390       O  0.64786683  0.35284032  0.68665200    -0.86200
O1391       O  0.64882003  0.41949358  0.72664240    -0.83300
C1392       C  0.62270743  0.43520035  0.72692943     0.97300
O1393       O  0.60923409  0.43982991  0.69902863    -0.83300
O1394       O  0.59421812  0.44629372  0.63215778    -0.85900
C1395       C  0.58589478  0.41464106  0.62176079     1.01700
O1396       O  0.60479886  0.38847244  0.61900958    -0.78700
O1397       O  0.65596132  0.34629123  0.63197434    -0.78900
C1398       C  0.65031385  0.33224074  0.66099481     1.01700
Cr1399     Cr  0.67314035  0.39819774  0.68670871     1.93700
Cr1400     Cr  0.63143347  0.46113866  0.66045727     1.93200
Cr1401     Cr  0.64855413  0.39766642  0.61375305     1.39100
O1402       O  0.65086196  0.41917699  0.65375740    -1.24000
O1403       O  0.69130837  0.09279504  0.61816685    -0.86200
O1404       O  0.63885848  0.05574328  0.59943314    -0.83300
C1405       C  0.64336449  0.02244864  0.60825684     0.97300
O1406       O  0.64730635  0.01437195  0.63928567    -0.83300
O1407       O  0.66346016  0.02381217  0.70707788    -0.85900
C1408       C  0.69117702  0.03451453  0.71000013     1.01800
O1409       O  0.69883589  0.06619706  0.70105448    -0.78700
O1410       O  0.70311149  0.12621074  0.66244596    -0.78900
C1411       C  0.71104439  0.10964491  0.63542472     1.01700
O1412       O  0.65469520  0.15591323  0.63763078    -0.86200
O1413       O  0.60426991  0.11441778  0.62655022    -0.83300
C1414       C  0.58437795  0.09055836  0.63269912     0.97300
O1415       O  0.59205970  0.05989957  0.64683744    -0.83300
O1416       O  0.60766951  0.07059314  0.71238023    -0.85900
C1417       C  0.62137019  0.07610255  0.73982235     1.01700
O1418       O  0.64776902  0.09029746  0.73826158    -0.78700
O1419       O  0.64648633  0.15340683  0.69266409    -0.78900
C1420       C  0.64907418  0.17211158  0.66547866     1.01700
Cr1421     Cr  0.64764100  0.10336353  0.62346773     1.93700
Cr1422     Cr  0.62909702  0.04488566  0.67582365     1.93200
Cr1423     Cr  0.67175107  0.10789472  0.69643395     1.39100
O1424       O  0.64938415  0.08504833  0.66526580    -1.24000
C1425       C  0.62630511  0.27261443  0.68130967    -0.02700
C1426       C  0.65016072  0.29138837  0.66460153     0.07000
C1427       C  0.67416694  0.27079000  0.64998962    -0.02800
C1428       C  0.67334772  0.23212124  0.64994235    -0.02800
C1429       C  0.64932119  0.21311327  0.66621738     0.07100
C1430       C  0.62633372  0.23358406  0.68295343    -0.03000
Br1431     Br  0.59431464  0.20848452  0.70727985    -0.01600
Br1432     Br  0.59259846  0.30015389  0.70002606    -0.01600
Br1433     Br  0.70658136  0.20585288  0.62844743    -0.01600
Br1434     Br  0.70973366  0.29501172  0.63152223    -0.01600
C1435       C  0.51062736  0.14273379  0.60706319    -0.02700
C1436       C  0.99062442  0.11330134  0.60182565     0.07000
C1437       C  0.50113962  0.07673338  0.60669997    -0.02800
C1438       C  0.53188288  0.06936528  0.61488919    -0.02800
C1439       C  0.55206878  0.09865858  0.62194516     0.07100
C1440       C  0.54113124  0.13571248  0.61748935    -0.03000
Br1441     Br  0.56676721  0.17811863  0.62512966    -0.01600
Br1442     Br  0.99535212  0.19274086  0.60208416    -0.01600
Br1443     Br  0.54607523  0.01887689  0.61205510    -0.01600
Br1444     Br  0.97359019  0.03578542  0.60205125    -0.01600
C1445       C  0.74899183  0.11017285  0.58793554    -0.02700
C1446       C  0.74314436  0.10938478  0.62344077     0.07000
C1447       C  0.76781292  0.10388736  0.64662012    -0.02800
C1448       C  0.79740017  0.09717128  0.63424419    -0.02800
C1449       C  0.80248493  0.09496833  0.59884667     0.07100
C1450       C  0.77828205  0.10145399  0.57572919    -0.03000
Br1451     Br  0.78550842  0.09887607  0.52732007    -0.01600
Br1452     Br  0.71794085  0.12719941  0.55591929    -0.01600
Br1453     Br  0.83105972  0.09049724  0.66608095    -0.01600
Br1454     Br  0.76195810  0.10494787  0.69538269    -0.01600
C1455       C  0.75294817  0.39180280  0.58115527    -0.02700
C1456       C  0.74525079  0.39421044  0.61607558     0.07000
C1457       C  0.76841304  0.40340692  0.64000399    -0.02800
C1458       C  0.79732368  0.41483110  0.62854719    -0.02800
C1459       C  0.80390179  0.41542414  0.59343069     0.07100
C1460       C  0.78217323  0.40225536  0.56998380    -0.03000
Br1461     Br  0.79324363  0.39646992  0.52281761    -0.01600
Br1462     Br  0.72468880  0.37046111  0.54891864    -0.01600
Br1463     Br  0.82834735  0.42929770  0.66110865    -0.01600
Br1464     Br  0.76191608  0.39938489  0.68854098    -0.01600
C1465       C  0.51756985  0.39974675  0.56355376    -0.02700
C1466       C  0.99411298  0.39304996  0.58747403     0.07000
C1467       C  0.00191663  0.38999449  0.62252159    -0.02800
C1468       C  0.53164877  0.39845801  0.63392549    -0.02800
C1469       C  0.55420235  0.40827092  0.61027281     0.07100
C1470       C  0.54745437  0.40745201  0.57505952    -0.03000
Br1471     Br  0.57932023  0.41740529  0.54249320    -0.01600
Br1472     Br  0.50969990  0.39873842  0.51501263    -0.01600
Br1473     Br  0.54172057  0.39593490  0.68192117    -0.01600
Br1474     Br  0.97275363  0.37058702  0.65460777    -0.01600
C1475       C  0.87216351  0.23897642  0.56743218    -0.02700
C1476       C  0.89185071  0.21857904  0.54625001     0.07000
C1477       C  0.91064696  0.23756366  0.02277431    -0.02800
C1478       C  0.91064850  0.27646870  0.02164209    -0.02800
C1479       C  0.89204218  0.29679834  0.54406957     0.07100
C1480       C  0.87258808  0.27787068  0.56670731    -0.03000
Br1481     Br  0.84655756  0.30520754  0.59705795    -0.01600
Br1482     Br  0.84391012  0.21367116  0.59694345    -0.01600
Br1483     Br  0.93863199  0.30178602  0.99168686    -0.01600
Br1484     Br  0.93866778  0.21077659  0.99410777    -0.01600
C1485       C  0.86993230  0.44303675  0.91034703    -0.02700
C1486       C  0.85534645  0.45111725  0.94166376     0.07000
C1487       C  0.83048354  0.47709254  0.94058773    -0.02800
C1488       C  0.82442796  0.49817437  0.91068957    -0.02800
C1489       C  0.84330366  0.49493741  0.88210330     0.07100
C1490       C  0.86481629  0.46577412  0.88119726    -0.03000
Br1491     Br  0.88957567  0.45919022  0.84114414    -0.01600
Br1492     Br  0.89768746  0.40154087  0.90649672    -0.01600
Br1493     Br  0.78961079  0.53130490  0.90817757    -0.01600
Br1494     Br  0.80433930  0.48590617  0.97927462    -0.01600
C1495       C  0.88215746  0.54669136  0.63242989    -0.02700
C1496       C  0.89652377  0.51176549  0.63729359     0.07000
C1497       C  0.90797093  0.50232609  0.67002387    -0.02800
C1498       C  0.90184970  0.52491405  0.69826526    -0.02800
C1499       C  0.88421999  0.55805686  0.69410259     0.07100
C1500       C  0.87672803  0.56996313  0.66058175    -0.03000
Br1501     Br  0.85981618  0.61873879  0.65299902    -0.01600
Br1502     Br  0.86732084  0.56204986  0.58789421    -0.01600
Br1503     Br  0.91719241  0.50770668  0.74236336    -0.01600
Br1504     Br  0.93247583  0.45800228  0.67640039    -0.01600
C1505       C  0.77111393  0.51426538  0.69990840    -0.02700
C1506       C  0.77595170  0.51399171  0.73553340     0.07000
C1507       C  0.75202983  0.50332227  0.75717605    -0.02800
C1508       C  0.72319773  0.49437291  0.74353031    -0.02800
C1509       C  0.71827137  0.49428135  0.70794799     0.07100
C1510       C  0.74267019  0.50345414  0.68616043    -0.03000
Br1511     Br  0.73719209  0.50003790  0.63733040    -0.01600
Br1512     Br  0.80306807  0.53063255  0.67002283    -0.01600
Br1513     Br  0.69071603  0.48117731  0.77378833    -0.01600
Br1514     Br  0.75904034  0.50160519  0.80592850    -0.01600
C1515       C  0.74150964  0.00440948  0.70364725    -0.02700
C1516       C  0.71641570  0.01221205  0.72486874     0.07000
C1517       C  0.72075558  0.01146006  0.76056369    -0.02800
C1518       C  0.74952892  0.00203105  0.77480557    -0.02800
C1519       C  0.77471948  0.99495583  0.75352885     0.07100
C1520       C  0.77058953  0.99656226  0.71786592    -0.03000
Br1521     Br  0.80462342  0.98713938  0.68837985    -0.01600
Br1522     Br  0.73595486  0.00565704  0.65467188    -0.01600
Br1523     Br  0.75459378  0.99813094  0.82377608    -0.01600
Br1524     Br  0.68792356  0.02560204  0.79004430    -0.01600
C1525       C  0.86585567  0.77383678  0.77980522    -0.02700
C1526       C  0.84520672  0.79354075  0.80062251     0.07000
C1527       C  0.82187587  0.77380544  0.81756831    -0.02800
C1528       C  0.81938953  0.73540734  0.81395618    -0.02800
C1529       C  0.84139605  0.71534689  0.79534656     0.07100
C1530       C  0.86458951  0.73484229  0.77811954    -0.03000
Br1531     Br  0.89573971  0.70819712  0.75373614    -0.01600
Br1532     Br  0.89634876  0.79973941  0.75387167    -0.01600
Br1533     Br  0.78392164  0.71109981  0.83282461    -0.01600
Br1534     Br  0.79154182  0.79876018  0.84477058    -0.01600
C1535       C  0.87528791  0.94549088  0.67097287    -0.02700
C1536       C  0.88214616  0.95750884  0.70432311     0.07000
C1537       C  0.89764854  0.99175871  0.70814311    -0.02800
C1538       C  0.90447683  0.01378971  0.67940017    -0.02800
C1539       C  0.89402966  0.00388040  0.64667504     0.07100
C1540       C  0.88000682  0.96908712  0.64246312    -0.03800
Br1541     Br  0.86432832  0.95471655  0.59840671    -0.01600
Br1542     Br  0.85989766  0.89640067  0.66415799    -0.01600
Br1543     Br  0.92862835  0.05793485  0.68505458    -0.01600
Br1544     Br  0.90778406  0.01189836  0.75246493    -0.01600
C1545       C  0.87373385  0.06660168  0.91942139    -0.02700
C1546       C  0.86564579  0.05567095  0.95289765     0.07000
C1547       C  0.84883241  0.02237778  0.95722857    -0.02800
C1548       C  0.84151361  0.00036009  0.92898786    -0.02800
C1549       C  0.85200868  0.00954141  0.89617043     0.07100
C1550       C  0.86708307  0.04366505  0.89125617    -0.03000
Br1551     Br  0.88014727  0.05875720  0.84630945    -0.01600
Br1552     Br  0.89381842  0.11314189  0.91175098    -0.01600
Br1553     Br  0.81604631  0.95755779  0.93538310    -0.01600
Br1554     Br  0.83756324  0.00319714  0.00181102    -0.01600
C1555       C  0.99334927  0.50055440  0.51025427    -0.02700
C1556       C  0.96644605  0.49602526  0.99069530     0.07000
C1557       C  0.96754956  0.50079600  0.95504657    -0.02800
C1558       C  0.99534935  0.50927039  0.93902553    -0.02800
C1559       C  0.52230928  0.51400160  0.95856126     0.07100
C1560       C  0.52113659  0.50933686  0.99427926    -0.03000
Br1561     Br  0.55711872  0.51616919  0.52173941    -0.01600
Br1562     Br  0.99178285  0.49494115  0.55931245    -0.01600
Br1563     Br  0.99679503  0.51436481  0.88992597    -0.01600
Br1564     Br  0.93107231  0.49526876  0.92804543    -0.01600
C1565       C  0.97148218  0.61105485  0.88767903    -0.02700
C1566       C  0.99465889  0.61701289  0.86320140     0.07000
C1567       C  0.98665319  0.61739422  0.82810753    -0.02800
C1568       C  0.95703257  0.60751897  0.81754543    -0.02800
C1569       C  0.93490327  0.59834366  0.84192447     0.07100
C1570       C  0.94175040  0.60171676  0.87690923    -0.03000
Br1571     Br  0.91008548  0.59326951  0.91013690    -0.01600
Br1572     Br  0.97943647  0.61504590  0.93604660    -0.01600
Br1573     Br  0.94640037  0.60842390  0.76967215    -0.01600
Br1574     Br  0.51531766  0.63463342  0.79436213    -0.01600
C1575       C  0.69062052  0.59983543  0.82250818    -0.02700
C1576       C  0.68504233  0.59752926  0.85781190     0.07000
C1577       C  0.70849866  0.60542186  0.88126319    -0.02800
C1578       C  0.73785590  0.61418368  0.86949505    -0.02800
C1579       C  0.74446763  0.61265326  0.83420947     0.07100
C1580       C  0.72035817  0.60654386  0.81062304    -0.03000
Br1581     Br  0.72734105  0.60586853  0.76209626    -0.01600
Br1582     Br  0.65730375  0.59358853  0.79034052    -0.01600
Br1583     Br  0.76825791  0.63099214  0.90181280    -0.01600
Br1584     Br  0.70009089  0.60525226  0.92950449    -0.01600
C1585       C  0.62648120  0.53847673  0.56776662    -0.02700
C1586       C  0.64272026  0.50491513  0.56339120     0.07000
C1587       C  0.65392313  0.49635543  0.53082177    -0.02800
C1588       C  0.64692273  0.51919812  0.50240566    -0.02800
C1589       C  0.62955977  0.55236682  0.50639372     0.07100
C1590       C  0.62088766  0.56258431  0.53968820    -0.03000
Br1591     Br  0.60012613  0.60899550  0.54705138    -0.01600
Br1592     Br  0.60817138  0.54967925  0.61116241    -0.01600
Br1593     Br  0.65913717  0.50132924  0.95800026    -0.01600
Br1594     Br  0.67882140  0.45259987  0.52474695    -0.01600
C1595       C  0.58146246  0.50558270  0.78353090    -0.02700
C1596       C  0.59641373  0.49986765  0.81506650     0.07000
C1597       C  0.61521988  0.46808695  0.81940501    -0.02800
C1598       C  0.62111826  0.44445044  0.79155712    -0.02800
C1599       C  0.60977565  0.45333461  0.75840375     0.07100
C1600       C  0.58834134  0.48331247  0.75521326    -0.03000
Br1601     Br  0.56846103  0.49690950  0.71235863    -0.01600
Br1602     Br  0.55035282  0.54361379  0.77963087    -0.01600
Br1603     Br  0.64472035  0.39979064  0.79948128    -0.01600
Br1604     Br  0.63492629  0.45785959  0.86286853    -0.01600
C1605       C  0.71692559  0.90288830  0.89875507    -0.02700
C1606       C  0.69344306  0.91256351  0.87551700     0.07000
C1607       C  0.69875889  0.91040643  0.84016056    -0.02800
C1608       C  0.72795280  0.90104667  0.82798995    -0.02800
C1609       C  0.75233272  0.89417610  0.85131063     0.07100
C1610       C  0.74606133  0.89288486  0.88670468    -0.03000
Br1611     Br  0.77621511  0.87332271  0.91855798    -0.01600
Br1612     Br  0.70877048  0.90207220  0.94703614    -0.01600
Br1613     Br  0.73343867  0.89756093  0.77927923    -0.01600
Br1614     Br  0.66582074  0.92061782  0.80808820    -0.01600
C1615       C  0.96020812  0.94322476  0.86219603    -0.02700
C1616       C  0.94318876  0.91368433  0.84871529     0.07000
C1617       C  0.95749302  0.87855907  0.84545259    -0.02800
C1618       C  0.98775237  0.87292094  0.85697183    -0.02800
C1619       C  0.00453009  0.90270047  0.86941513     0.07100
C1620       C  0.99127575  0.93819990  0.87015630    -0.03000
Br1621     Br  0.51568867  0.98057347  0.88105958    -0.01600
Br1622     Br  0.94110585  0.98971243  0.87370208    -0.01600
Br1623     Br  0.00715887  0.82503109  0.85376221    -0.01600
Br1624     Br  0.93689530  0.83795977  0.82406035    -0.01600
C1625       C  0.62223595  0.77281297  0.90456600    -0.02700
C1626       C  0.59762970  0.79268252  0.91869929     0.07000
C1627       C  0.57216493  0.77332341  0.93130063    -0.02800
C1628       C  0.57081475  0.73462042  0.92860964    -0.02800
C1629       C  0.59493477  0.71483488  0.91337211     0.07100
C1630       C  0.62093671  0.73398555  0.90200367    -0.03000
Br1631     Br  0.65495481  0.70685173  0.88357460    -0.01600
Br1632     Br  0.65792527  0.79891575  0.88934601    -0.01600
Br1633     Br  0.53504401  0.70887602  0.44442567    -0.01600
Br1634     Br  0.53813811  0.79994749  0.45062993    -0.01600
C1635       C  0.58851839  0.02907372  0.77100337    -0.02700
C1636       C  0.60878586  0.05968983  0.77237882     0.07000
C1637       C  0.62017925  0.07002421  0.80480659    -0.02800
C1638       C  0.61621021  0.04666776  0.83371697    -0.02800
C1639       C  0.60063856  0.01276614  0.83052541     0.07100
C1640       C  0.58537602  0.00535387  0.79953468    -0.03000
Br1641     Br  0.55972557  0.96231098  0.79597190    -0.01600
Br1642     Br  0.56418677  0.01817252  0.73075185    -0.01600
Br1643     Br  0.63416553  0.06021075  0.87691597    -0.01600
Br1644     Br  0.64055863  0.11665030  0.80998810    -0.01600
C1645       C  0.65140587  0.97878744  0.52159675    -0.02700
C1646       C  0.63058733  0.94860781  0.52334216     0.07000
C1647       C  0.61815066  0.93944163  0.55567036    -0.02800
C1648       C  0.62369742  0.96206786  0.58436590    -0.02800
C1649       C  0.64260961  0.99337519  0.58150507     0.07100
C1650       C  0.65821424  0.99947943  0.55085419    -0.03000
Br1651     Br  0.69025584  0.03574149  0.54946865    -0.01600
Br1652     Br  0.66912507  0.99636820  0.97923095    -0.01600
Br1653     Br  0.60438438  0.95064193  0.62724337    -0.01600
Br1654     Br  0.59352160  0.89593307  0.56140174    -0.01600
C1655       C  0.01828465  0.02626857  0.96605063    -0.02700
C1656       C  0.52720899  0.99068354  0.97689912     0.07000
C1657       C  0.50843491  0.97122216  0.00029155    -0.02800
C1658       C  0.98088874  0.98684773  0.51212471    -0.02800
C1659       C  0.97163919  0.02205561  0.00065690     0.07100
C1660       C  0.99021667  0.04135269  0.97695603    -0.03000
Br1661     Br  0.97626404  0.08772509  0.95729601    -0.01600
Br1662     Br  0.54408831  0.05410154  0.93566312    -0.01600
Br1663     Br  0.95622245  0.96020017  0.54453068    -0.01600
Br1664     Br  0.52077430  0.92315119  0.51735904    -0.01600
loop_ 
_geom_bond_atom_site_label_1 
_geom_bond_atom_site_label_2 
_geom_bond_distance 
_geom_bond_site_symmetry_2 
_ccdc_geom_bond_type 
O1          Cr19   1.950       .  S
O1            C9   1.254       .  A
O2          Cr19   2.022       .  S
O2            C3   1.268       .  A
C3            O4   1.260       .  A
C3          C391   1.498   1_565  S
O4          Cr20   1.990       .  S
O5          Cr20   2.071       .  S
O5            C6   1.281       .  A
C6            O7   1.250       .  A
C6          C408   1.488       .  S
O7          Cr21   1.933       .  S
O8          Cr21   2.021       .  S
O8            C9   1.271       .  A
C9         C1203   1.464       .  S
O10         Cr19   2.023       .  S
O10          C18   1.270       .  A
O11         Cr19   1.949       .  S
O11          C12   1.256       .  A
C12          O13   1.277       .  A
C12         C358   1.474       .  S
O13         Cr20   2.045       .  S
O14         Cr20   1.961       .  S
O14          C15   1.246       .  A
C15          O16   1.270       .  A
C15         C814   1.511       .  S
O16         Cr21   2.054       .  S
O17         Cr21   1.986       .  S
O17          C18   1.264       .  A
C18         C378   1.485       .  S
Cr19         O22   1.762       .  S
Cr20         O22   1.759       .  S
Cr21         O22   1.773       .  S
O23         Cr41   2.025       .  S
O23          C31   1.269       .  A
O24         Cr41   1.928       .  S
O24          C25   1.249       .  A
C25          O26   1.280       .  A
C25         C311   1.477       .  S
O26         Cr42   2.067       .  S
O27         Cr42   1.978       .  S
O27          C28   1.257       .  A
C28          O29   1.272       .  A
C28         C348   1.501       .  S
O29         Cr43   2.034       .  S
O30         Cr43   1.966       .  S
O30          C31   1.259       .  A
C31        C1150   1.487   1_455  S
O32         Cr41   1.976       .  S
O32          C40   1.263       .  A
O33         Cr41   2.047       .  S
O33          C34   1.268       .  A
C34          O35   1.244       .  A
C34         C757   1.503       .  S
O35         Cr42   1.961       .  S
O36         Cr42   2.032       .  S
O36          C37   1.274       .  A
C37          O38   1.256       .  A
C37         C328   1.469       .  S
O38         Cr43   1.950       .  S
O39         Cr43   2.038       .  S
O39          C40   1.275       .  A
C40         C381   1.486       .  S
Cr41         O44   1.770       .  S
Cr42         O44   1.760       .  S
Cr43         O44   1.758       .  S
O45         Cr63   2.029       .  S
O45          C53   1.273       .  A
O46         Cr63   1.923       .  S
O46          C47   1.246       .  A
C47          O48   1.277       .  A
C47         C271   1.472       .  S
O48         Cr64   2.060       .  S
O49         Cr64   1.983       .  S
O49          C50   1.257       .  A
C50          O51   1.268       .  A
C50         C301   1.497   1_565  S
O51         Cr65   2.022       .  S
O52         Cr65   1.965       .  S
O52          C53   1.260       .  A
C53         C361   1.489       .  S
O54         Cr63   1.984       .  S
O54          C62   1.264       .  A
O55         Cr63   2.059       .  S
O55          C56   1.272       .  A
C56          O57   1.243       .  A
C56         C288   1.504       .  S
O57         Cr64   1.957       .  S
O58         Cr64   2.021       .  S
O58          C59   1.274       .  A
C59          O60   1.258       .  A
C59         C368   1.483       .  S
O60         Cr65   1.949       .  S
O61         Cr65   2.025       .  S
O61          C62   1.272       .  A
C62         C278   1.497       .  S
Cr63         O66   1.771       .  S
Cr64         O66   1.758       .  S
Cr65         O66   1.759       .  S
O67         Cr85   1.956       .  S
O67          C75   1.259       .  A
O68         Cr85   2.016       .  S
O68          C69   1.266       .  A
C69          O70   1.257       .  A
C69         C241   1.490       .  S
O70         Cr86   1.984       .  S
O71         Cr86   2.055       .  S
O71          C72   1.277       .  A
C72          O73   1.249       .  A
C72         C258   1.470       .  S
O73         Cr87   1.925       .  S
O74         Cr87   2.036       .  S
O74          C75   1.275       .  A
C75         C331   1.485       .  S
O76         Cr85   2.006       .  S
O76          C84   1.267       .  A
O77         Cr85   1.951       .  S
O77          C78   1.257       .  A
C78          O79   1.275       .  A
C78         C321   1.470       .  S
O79         Cr86   2.032       .  S
O80         Cr86   1.952       .  S
O80          C81   1.242       .  A
C81          O82   1.270       .  A
C81         C251   1.507       .  S
O82         Cr87   2.055       .  S
O83         Cr87   1.992       .  S
O83          C84   1.265       .  A
C84         C281   1.493       .  S
Cr85         O88   1.758       .  S
Cr86         O88   1.761       .  S
Cr87         O88   1.777       .  S
O89        Cr107   1.968       .  S
O89          C97   1.262       .  A
O90        Cr107   2.015       .  S
O90          C91   1.264       .  A
C91          O92   1.255       .  A
C91         C248   1.499       .  S
O92        Cr108   1.986       .  S
O93        Cr108   2.051       .  S
O93          C94   1.276       .  A
C94          O95   1.250       .  A
C94         C724   1.474   1_554  S
O95        Cr109   1.930       .  S
O96        Cr109   2.032       .  S
O96          C97   1.272       .  A
C97         C218   1.489       .  S
O98        Cr107   2.018       .  S
O98         C106   1.268       .  A
O99        Cr107   1.947       .  S
O99         C100   1.258       .  A
C100        O101   1.279       .  A
C100        C211   1.473       .  S
O101       Cr108   2.046       .  S
O102       Cr524   1.968       .  S
O102        C103   1.248       .  A
C103        O104   1.271       .  A
C103        C238   1.517       .  S
O104       Cr525   2.034       .  S
O105       Cr109   1.982       .  S
O105        C106   1.262       .  A
C106        C231   1.484       .  S
Cr107       O110   1.765       .  S
Cr108       O518   1.968       .  S
Cr108       O110   1.769       .  S
Cr109       O520   2.034   1_554  S
Cr109       O110   1.768       .  S
O111       Cr129   2.026       .  S
O111        C119   1.273       .  A
O112       Cr129   1.932       .  S
O112        C113   1.249       .  A
C113        O114   1.282       .  A
C113        C827   1.487       .  S
O114       Cr130   2.074       .  S
O115       Cr130   1.980       .  S
O115        C116   1.260       .  A
C116        O117   1.269       .  A
C116        C291   1.495       .  S
O117       Cr131   2.021       .  S
O118       Cr131   1.949       .  S
O118        C119   1.256       .  A
C119        C188   1.473       .  S
O120       Cr129   1.979       .  S
O120        C128   1.262       .  A
O121       Cr545   2.057       .  S
O121        C122   1.270       .  A
C122        O123   1.244       .  A
C122        C298   1.504       .  S
O123       Cr546   1.959       .  S
O124       Cr130   2.036       .  S
O124        C125   1.274       .  A
C125        O126   1.257       .  A
C125        C201   1.469       .  S
O126       Cr131   1.952       .  S
O127       Cr131   2.024       .  S
O127        C128   1.271       .  A
C128        C228   1.488       .  S
Cr129       O537   2.057   1_554  S
Cr129       O132   1.770       .  S
Cr130       O539   1.959       .  S
Cr130       O132   1.756       .  S
Cr131       O132   1.761       .  S
O133       Cr151   2.029       .  S
O133        C141   1.274       .  A
O134       Cr151   1.923       .  S
O134        C135   1.245       .  A
C135        O136   1.277       .  A
C135        C261   1.473       .  S
O136       Cr152   2.058       .  S
O137       Cr152   1.980       .  S
O137        C138   1.256       .  A
C138        O139   1.264       .  A
C138        C338   1.493       .  S
O139       Cr153   2.015       .  S
O140       Cr153   1.969       .  S
O140        C141   1.262       .  A
C141        C208   1.491       .  S
O142       Cr151   1.989       .  S
O142        C150   1.264       .  A
O143       Cr151   2.055       .  S
O143        C144   1.272       .  A
C144        O145   1.246       .  A
C144        C351   1.517       .  S
O145       Cr152   1.959       .  S
O146       Cr152   2.039       .  S
O146        C147   1.277       .  A
C147        O148   1.259       .  A
C147        C221   1.473       .  S
O148       Cr153   1.957       .  S
O149       Cr153   2.010       .  S
O149        C150   1.268       .  A
C150        C178   1.487       .  S
Cr151       O154   1.771       .  S
Cr152       O154   1.760       .  S
Cr153       O154   1.761       .  S
O155       Cr173   1.958       .  S
O155        C163   1.258       .  A
O156       Cr173   2.014       .  S
O156        C157   1.265       .  A
C157        O158   1.257       .  A
C157        C401   1.496   1_545  S
O158       Cr174   1.988       .  S
O159       Cr174   2.065       .  S
O159        C160   1.280       .  A
C160        O161   1.247       .  A
C160        C268   1.474       .  S
O161       Cr175   1.918       .  S
O162       Cr175   2.032       .  S
O162        C163   1.273       .  A
C163        C198   1.484       .  S
O164       Cr173   2.016       .  S
O164        C172   1.270       .  A
O165       Cr173   1.940       .  S
O165        C166   1.255       .  A
C166        O167   1.277       .  A
C166        C191   1.496       .  S
O167       Cr174   2.035       .  S
O168       Cr174   1.960       .  S
O168        C169   1.245       .  A
C169        O170   1.269       .  A
C169        C388   1.512       .  S
O170       Cr175   2.053       .  S
O171       Cr175   1.981       .  S
O171        C172   1.263       .  A
C172        C181   1.488       .  S
Cr173       O176   1.761       .  S
Cr174       O176   1.759       .  S
Cr175       O176   1.774       .  S
C177        C178   1.413       .  A
C177        C182   1.416       .  A
C177       Br184   1.929       .  S
C178        C179   1.413       .  A
C179        C180   1.403       .  A
C179       Br186   1.935       .  S
C180        C181   1.415       .  A
C180       Br185   1.936       .  S
C181        C182   1.415       .  A
C182       Br183   1.930       .  S
C187        C192   1.411       .  A
C187       C1020   1.401   1_455  A
C187      Br1026   1.934   1_455  S
C188       C1019   1.401       .  A
C188       C1021   1.410       .  A
C189        C190   1.402       .  A
C189       C1020   1.410   1_455  A
C189      Br1028   1.929   1_455  S
C190        C191   1.415       .  A
C190       Br195   1.933       .  S
C191        C192   1.431       .  A
C192       Br193   1.935       .  S
Br194      C1019   1.934       .  S
Br196      C1021   1.929       .  S
C197        C198   1.417       .  A
C197        C202   1.406       .  A
C197       Br204   1.932       .  S
C198        C199   1.414       .  A
C199        C200   1.406       .  A
C199       Br206   1.931       .  S
C200        C201   1.410       .  A
C200       Br205   1.932       .  S
C201        C202   1.403       .  A
C202       Br203   1.930       .  S
C207        C208   1.416       .  A
C207        C212   1.408       .  A
C207       Br214   1.931       .  S
C208        C209   1.418       .  A
C209        C210   1.410       .  A
C209       Br216   1.930       .  S
C210        C211   1.409       .  A
C210       Br215   1.933       .  S
C211        C212   1.405       .  A
C212       Br213   1.929       .  S
C217        C222   1.409       .  A
C217       C1050   1.417   1_455  A
C217       Br224   1.931       .  S
C218        C219   1.415       .  A
C218       C1049   1.417       .  A
C219       C1052   1.408       .  A
C219       Br226   1.931       .  S
C220        C221   1.405       .  A
C220       C1051   1.408       .  A
C220       Br225   1.928       .  S
C221        C222   1.409       .  A
C222       Br223   1.932       .  S
C227        C228   1.412       .  A
C227        C232   1.411       .  A
C227       Br234   1.931       .  S
C228        C645   1.416       .  A
C229        C230   1.411       .  A
C229        C644   1.416       .  A
C229       Br236   1.934       .  S
C230        C647   1.412       .  A
C230       Br235   1.934       .  S
C231        C232   1.412       .  A
C231        C646   1.412       .  A
C232       Br233   1.931       .  S
C237        C238   1.421       .  A
C237        C242   1.416       .  A
C237       Br244   1.933       .  S
C238        C239   1.432       .  A
C239        C240   1.413       .  A
C239       Br246   1.936       .  S
C240        C241   1.404       .  A
C240       Br245   1.932       .  S
C241        C242   1.410       .  A
C242       Br243   1.932       .  S
C247        C248   1.419       .  A
C247        C252   1.417       .  A
C247       Br254   1.930       .  S
C248        C249   1.410       .  A
C249        C250   1.411       .  A
C249       Br256   1.937       .  S
C250        C251   1.429       .  A
C250       Br255   1.942       .  S
C251        C252   1.413       .  A
C252       Br253   1.930       .  S
C257        C258   1.410       .  A
C257        C262   1.411       .  A
C257       Br264   1.925       .  S
C258        C259   1.407       .  A
C259        C260   1.406       .  A
C259       Br266   1.932       .  S
C260        C261   1.409       .  A
C260       Br265   1.919       .  S
C261        C262   1.413       .  A
C262       Br263   1.932       .  S
C267        C268   1.412       .  A
C267        C272   1.408   1_545  A
C267       Br274   1.932       .  S
C268        C269   1.410       .  A
C269        C270   1.409       .  A
C269       Br276   1.922       .  S
C270        C271   1.412   1_545  A
C270       Br275   1.933   1_545  S
C271        C272   1.408       .  A
C272       Br273   1.924       .  S
C277        C278   1.417       .  A
C277        C282   1.418       .  A
C277       Br284   1.928       .  S
C278        C279   1.417       .  A
C279        C280   1.406       .  A
C279       Br286   1.935       .  S
C280        C281   1.415       .  A
C280       Br285   1.939       .  S
C281        C282   1.414       .  A
C282       Br283   1.930       .  S
C287        C288   1.413       .  A
C287        C292   1.417       .  A
C287       Br294   1.929       .  S
C288        C289   1.428       .  A
C289        C290   1.409   1_565  A
C289       Br296   1.941   1_565  S
C290        C291   1.409       .  A
C290       Br295   1.939       .  S
C291        C292   1.418   1_545  A
C292       Br293   1.930       .  S
C297        C298   1.415       .  A
C297        C302   1.419       .  A
C297       Br304   1.931       .  S
C298        C299   1.428       .  A
C299        C300   1.408       .  A
C299       Br306   1.943       .  S
C300        C301   1.407       .  A
C300       Br305   1.933   1_545  S
C301        C302   1.419       .  A
C302       Br303   1.932       .  S
C307        C724   1.410   1_554  A
C307       C1560   1.409   1_554  A
C307       Br314   1.933       .  S
C308        C510   1.474       .  S
C308        C309   1.407       .  A
C308        C723   1.410       .  A
C309        C310   1.408       .  A
C309       Br316   1.918       .  S
C310       C1143   1.412       .  A
C310       Br315   1.933       .  S
C311        C312   1.410       .  A
C311       C1142   1.412   1_455  A
C312       C1555   1.409   1_455  A
C312       Br729   1.917       .  S
Br313       C728   1.917   1_554  S
C317        C318   1.418       .  A
C317        C322   1.408       .  A
C317       Br324   1.931       .  S
C318        C863   1.487       .  S
C318        C319   1.416       .  A
C319        C320   1.406       .  A
C319      Br1158   1.933       .  S
C320        C321   1.406       .  A
C320       Br325   1.928       .  S
C321        C322   1.407       .  A
C322       Br323   1.934       .  S
Br326      C1151   1.933   1_455  S
C327        C328   1.409       .  A
C327        C332   1.408       .  A
C327       Br334   1.933       .  S
C328        C329   1.404       .  A
C329        C330   1.406       .  A
C329       Br336   1.930       .  S
C330        C331   1.417       .  A
C330       Br335   1.934       .  S
C331        C332   1.415       .  A
C332       Br333   1.930       .  S
C337        C338   1.417       .  A
C337        C342   1.416       .  A
C337       Br344   1.933       .  S
C338        C339   1.409       .  A
C339        C340   1.410       .  A
C339       Br346   1.935       .  S
C340        C341   1.428       .  A
C340       Br761   1.941   1_554  S
C341        C450   1.503   1_554  S
C341        C342   1.415       .  A
C342       Br343   1.931       .  S
Br345       C756   1.941       .  S
C347        C348   1.405       .  A
C347        C352   1.413       .  A
C347       Br354   1.933       .  S
C348        C349   1.418       .  A
C349        C350   1.420       .  A
C349       Br356   1.932       .  S
C350        C351   1.419       .  A
C350       Br355   1.933       .  S
C351        C352   1.433       .  A
C352       Br353   1.940       .  S
C357        C358   1.405       .  A
C357        C362   1.409       .  A
C357       Br364   1.929       .  S
C358        C359   1.410       .  A
C359        C360   1.407       .  A
C359       Br366   1.933       .  S
C360        C361   1.416       .  A
C360       Br365   1.932       .  S
C361        C362   1.417       .  A
C362       Br363   1.931       .  S
C367        C368   1.414       .  A
C367        C372   1.401       .  A
C367       Br374   1.935       .  S
C368        C369   1.422       .  A
C369        C370   1.406       .  A
C369       Br376   1.928       .  S
C370        C371   1.400       .  A
C370       Br375   1.932       .  S
C371        C841   1.464       .  S
C371        C372   1.408       .  A
C372      Br1205   1.928       .  S
Br373      C1204   1.928   1_455  S
C377        C378   1.411       .  A
C377        C382   1.414       .  A
C377       Br384   1.928       .  S
C378        C379   1.412       .  A
C379        C380   1.410       .  A
C379       Br802   1.931       .  S
C380        C381   1.412       .  A
C380       Br801   1.931       .  S
C381        C382   1.410       .  A
C382       Br383   1.927       .  S
Br385       C796   1.931       .  S
Br386       C795   1.931       .  S
C387        C388   1.427       .  A
C387        C392   1.411       .  A
C387       Br394   1.940       .  S
C388        C389   1.416       .  A
C389        C390   1.420       .  A
C389       Br396   1.930       .  S
C390        C391   1.416       .  A
C390       Br395   1.929       .  S
C391        C392   1.410       .  A
C392       Br393   1.935   1_545  S
C397        C398   1.431       .  A
C397        C402   1.408       .  A
C397       Br820   1.942   1_554  S
C398        C431   1.511   1_554  S
C398        C399   1.421       .  A
C399        C400   1.420       .  A
C399       Br406   1.930       .  S
C400        C401   1.414       .  A
C400       Br405   1.930       .  S
C401        C402   1.404       .  A
C402       Br403   1.930   1_565  S
Br404       C813   1.942       .  S
C407        C412   1.411       .  A
C407       C1240   1.405   1_545  A
C407      Br1246   1.931       .  S
C408        C409   1.422       .  A
C408       C1239   1.405   1_565  A
C409       C1658   1.411   1_455  A
C409       Br832   1.931       .  S
C410       C1657   1.411       .  A
C410        C827   1.404   1_565  A
C410       Br415   1.930       .  S
C411        C529   1.487       .  S
C411        C412   1.422       .  A
C411        C826   1.404   1_545  A
C412       Br413   1.933       .  S
Br414      C1239   1.931       .  S
Br416       C825   1.931       .  S
O417       Cr435   1.950       .  S
O417        C425   1.254       .  A
O418       Cr435   2.022       .  S
O418        C419   1.268       .  A
C419        O420   1.260       .  A
C419        C807   1.498   1_565  S
O420       Cr436   1.990       .  S
O421       Cr436   2.071       .  S
O421        C422   1.281       .  A
C422        O423   1.250       .  A
C422        C824   1.488       .  S
O423       Cr437   1.933       .  S
O424       Cr437   2.021       .  S
O424        C425   1.271       .  A
C425       C1619   1.464       .  S
O426       Cr435   2.023       .  S
O426        C434   1.270       .  A
O427       Cr435   1.949       .  S
O427        C428   1.256       .  A
C428        O429   1.277       .  A
C428        C774   1.474       .  S
O429       Cr436   2.045       .  S
O430       Cr436   1.961       .  S
O430        C431   1.246       .  A
C431        O432   1.270       .  A
O432       Cr437   2.054       .  S
O433       Cr437   1.986       .  S
O433        C434   1.264       .  A
C434        C794   1.485       .  S
Cr435       O438   1.762       .  S
Cr436       O438   1.759       .  S
Cr437       O438   1.773       .  S
O439       Cr457   2.025       .  S
O439        C447   1.269       .  A
O440       Cr457   1.928       .  S
O440        C441   1.249       .  A
C441        O442   1.280       .  A
C441        C727   1.477       .  S
O442       Cr458   2.067       .  S
O443       Cr458   1.978       .  S
O443        C444   1.257       .  A
C444        O445   1.272       .  A
C444        C764   1.501       .  S
O445       Cr459   2.034       .  S
O446       Cr459   1.966       .  S
O446        C447   1.259       .  A
C447       C1566   1.487   1_455  S
O448       Cr457   1.976       .  S
O448        C456   1.263       .  A
O449       Cr457   2.047       .  S
O449        C450   1.268       .  A
C450        O451   1.244       .  A
O451       Cr458   1.961       .  S
O452       Cr458   2.032       .  S
O452        C453   1.274       .  A
C453        O454   1.256       .  A
C453        C744   1.469       .  S
O454       Cr459   1.950       .  S
O455       Cr459   2.038       .  S
O455        C456   1.275       .  A
C456        C797   1.486       .  S
Cr457       O460   1.770       .  S
Cr458       O460   1.760       .  S
Cr459       O460   1.758       .  S
O461       Cr479   2.029       .  S
O461        C469   1.273       .  A
O462       Cr479   1.923       .  S
O462        C463   1.246       .  A
C463        O464   1.277       .  A
C463        C687   1.472       .  S
O464       Cr480   2.060       .  S
O465       Cr480   1.983       .  S
O465        C466   1.257       .  A
C466        O467   1.268       .  A
C466        C717   1.497   1_565  S
O467       Cr481   2.022       .  S
O468       Cr481   1.965       .  S
O468        C469   1.260       .  A
C469        C777   1.489       .  S
O470       Cr479   1.984       .  S
O470        C478   1.264       .  A
O471       Cr479   2.059       .  S
O471        C472   1.272       .  A
C472        O473   1.243       .  A
C472        C704   1.504       .  S
O473       Cr480   1.957       .  S
O474       Cr480   2.021       .  S
O474        C475   1.274       .  A
C475        O476   1.258       .  A
C475        C784   1.483       .  S
O476       Cr481   1.949       .  S
O477       Cr481   2.025       .  S
O477        C478   1.272       .  A
C478        C694   1.497       .  S
Cr479       O482   1.771       .  S
Cr480       O482   1.758       .  S
Cr481       O482   1.759       .  S
O483       Cr501   1.956       .  S
O483        C491   1.259       .  A
O484       Cr501   2.016       .  S
O484        C485   1.266       .  A
C485        O486   1.257       .  A
C485        C657   1.490       .  S
O486       Cr502   1.984       .  S
O487       Cr502   2.055       .  S
O487        C488   1.277       .  A
C488        O489   1.249       .  A
C488        C674   1.471       .  S
O489       Cr503   1.926       .  S
O490       Cr503   2.036       .  S
O490        C491   1.275       .  A
C491        C747   1.485       .  S
O492       Cr501   2.006       .  S
O492        C500   1.267       .  A
O493       Cr501   1.951       .  S
O493        C494   1.257       .  A
C494        O495   1.275       .  A
C494        C737   1.470       .  S
O495       Cr502   2.032       .  S
O496       Cr502   1.952       .  S
O496        C497   1.242       .  A
C497        O498   1.270       .  A
C497        C667   1.507       .  S
O498       Cr503   2.055       .  S
O499       Cr503   1.992       .  S
O499        C500   1.265       .  A
C500        C697   1.493       .  S
Cr501       O504   1.758       .  S
Cr502       O504   1.761       .  S
Cr503       O504   1.777       .  S
O505       Cr523   1.968       .  S
O505        C513   1.262       .  A
O506       Cr523   2.015       .  S
O506        C507   1.264       .  A
C507        O508   1.255       .  A
C507        C664   1.499       .  S
O508       Cr524   1.986       .  S
O509       Cr524   2.051       .  S
O509        C510   1.276       .  A
C510        O511   1.250       .  A
O511       Cr525   1.930       .  S
O512       Cr525   2.032       .  S
O512        C513   1.272       .  A
C513        C634   1.489       .  S
O514       Cr523   2.018       .  S
O514        C522   1.268       .  A
O515       Cr523   1.947       .  S
O515        C516   1.258       .  A
C516        O517   1.279       .  A
C516        C627   1.473       .  S
O517       Cr524   2.046       .  S
O518        C519   1.248   1_554  A
C519        O520   1.271       .  A
C519        C654   1.516       .  S
O521       Cr525   1.982       .  S
O521        C522   1.262       .  A
C522        C647   1.484       .  S
Cr523       O526   1.765       .  S
Cr524       O526   1.769       .  S
Cr525       O526   1.768       .  S
O527       Cr545   2.026       .  S
O527        C535   1.273       .  A
O528       Cr545   1.932       .  S
O528        C529   1.249       .  A
C529        O530   1.282       .  A
O530       Cr546   2.074       .  S
O531       Cr546   1.980       .  S
O531        C532   1.260       .  A
C532        O533   1.269       .  A
C532        C707   1.495       .  S
O533       Cr547   2.021       .  S
O534       Cr547   1.949       .  S
O534        C535   1.256       .  A
C535        C604   1.473       .  S
O536       Cr545   1.979       .  S
O536        C544   1.262       .  A
O537        C538   1.270       .  A
C538        O539   1.244   1_556  A
C538        C714   1.504       .  S
O540       Cr546   2.036       .  S
O540        C541   1.274       .  A
C541        O542   1.257       .  A
C541        C617   1.469       .  S
O542       Cr547   1.952       .  S
O543       Cr547   2.024       .  S
O543        C544   1.271       .  A
C544        C644   1.488       .  S
Cr545       O548   1.770       .  S
Cr546       O548   1.756       .  S
Cr547       O548   1.761       .  S
O549       Cr567   2.029       .  S
O549        C557   1.273       .  A
O550       Cr567   1.923       .  S
O550        C551   1.245       .  A
C551        O552   1.277       .  A
C551        C677   1.473       .  S
O552       Cr568   2.058       .  S
O553       Cr568   1.980       .  S
O553        C554   1.256       .  A
C554        O555   1.264       .  A
C554        C754   1.493       .  S
O555       Cr569   2.016       .  S
O556       Cr569   1.969       .  S
O556        C557   1.262       .  A
C557        C624   1.491       .  S
O558       Cr567   1.989       .  S
O558        C566   1.264       .  A
O559       Cr567   2.055       .  S
O559        C560   1.272       .  A
C560        O561   1.246       .  A
C560        C767   1.517       .  S
O561       Cr568   1.959       .  S
O562       Cr568   2.039       .  S
O562        C563   1.277       .  A
C563        O564   1.259       .  A
C563        C637   1.473       .  S
O564       Cr569   1.957       .  S
O565       Cr569   2.010       .  S
O565        C566   1.268       .  A
C566        C594   1.487       .  S
Cr567       O570   1.771       .  S
Cr568       O570   1.760       .  S
Cr569       O570   1.761       .  S
O571       Cr589   1.958       .  S
O571        C579   1.258       .  A
O572       Cr589   2.014       .  S
O572        C573   1.265       .  A
C573        O574   1.257       .  A
C573        C817   1.496   1_545  S
O574       Cr590   1.988       .  S
O575       Cr590   2.065       .  S
O575        C576   1.280       .  A
C576        O577   1.247       .  A
C576        C684   1.474       .  S
O577       Cr591   1.919       .  S
O578       Cr591   2.031       .  S
O578        C579   1.273       .  A
C579        C614   1.484       .  S
O580       Cr589   2.016       .  S
O580        C588   1.270       .  A
O581       Cr589   1.940       .  S
O581        C582   1.255       .  A
C582        O583   1.277       .  A
C582        C607   1.496       .  S
O583       Cr590   2.035       .  S
O584       Cr590   1.960       .  S
O584        C585   1.245       .  A
C585        O586   1.269       .  A
C585        C804   1.512       .  S
O586       Cr591   2.053       .  S
O587       Cr591   1.981       .  S
O587        C588   1.263       .  A
C588        C597   1.488       .  S
Cr589       O592   1.761       .  S
Cr590       O592   1.759       .  S
Cr591       O592   1.774       .  S
C593        C594   1.413       .  A
C593        C598   1.416       .  A
C593       Br600   1.929       .  S
C594        C595   1.413       .  A
C595        C596   1.403       .  A
C595       Br602   1.935       .  S
C596        C597   1.415       .  A
C596       Br601   1.936       .  S
C597        C598   1.415       .  A
C598       Br599   1.930       .  S
C603       C1436   1.401   1_455  A
C603        C608   1.411       .  A
C603      Br1442   1.934   1_455  S
C604       C1435   1.401       .  A
C604       C1437   1.410       .  A
C605       C1436   1.410   1_455  A
C605        C606   1.402       .  A
C605      Br1444   1.929   1_455  S
C606        C607   1.415       .  A
C606       Br611   1.933       .  S
C607        C608   1.431       .  A
C608       Br609   1.935       .  S
Br610      C1435   1.934       .  S
Br612      C1437   1.929       .  S
C613        C614   1.417       .  A
C613        C618   1.406       .  A
C613       Br620   1.932       .  S
C614        C615   1.414       .  A
C615        C616   1.406       .  A
C615       Br622   1.931       .  S
C616        C617   1.410       .  A
C616       Br621   1.932       .  S
C617        C618   1.403       .  A
C618       Br619   1.930       .  S
C623        C624   1.416       .  A
C623        C628   1.408       .  A
C623       Br630   1.931       .  S
C624        C625   1.418       .  A
C625        C626   1.410       .  A
C625       Br632   1.930       .  S
C626        C627   1.409       .  A
C626       Br631   1.933       .  S
C627        C628   1.405       .  A
C628       Br629   1.929       .  S
C633       C1466   1.417   1_455  A
C633        C638   1.409       .  A
C633       Br640   1.931       .  S
C634       C1465   1.417       .  A
C634        C635   1.415       .  A
C635       C1468   1.408       .  A
C635       Br642   1.931       .  S
C636       C1467   1.408       .  A
C636        C637   1.405       .  A
C636       Br641   1.928       .  S
C637        C638   1.409       .  A
C638       Br639   1.932       .  S
C643        C644   1.412       .  A
C643        C648   1.411       .  A
C643       Br650   1.931       .  S
C645        C646   1.411       .  A
C645       Br652   1.934   1_554  S
C646       Br651   1.934   1_554  S
C647        C648   1.412       .  A
C648       Br649   1.931       .  S
C653        C654   1.421       .  A
C653        C658   1.416       .  A
C653       Br660   1.933       .  S
C654        C655   1.432       .  A
C655        C656   1.413       .  A
C655       Br662   1.936       .  S
C656        C657   1.404       .  A
C656       Br661   1.932       .  S
C657        C658   1.410       .  A
C658       Br659   1.932       .  S
C663        C664   1.419       .  A
C663        C668   1.417       .  A
C663       Br670   1.930       .  S
C664        C665   1.410       .  A
C665        C666   1.411       .  A
C665       Br672   1.937       .  S
C666        C667   1.429       .  A
C666       Br671   1.942       .  S
C667        C668   1.413       .  A
C668       Br669   1.930       .  S
C673        C674   1.410       .  A
C673        C678   1.411       .  A
C673       Br680   1.925       .  S
C674        C675   1.407       .  A
C675        C676   1.406       .  A
C675       Br682   1.932       .  S
C676        C677   1.409       .  A
C676       Br681   1.919       .  S
C677        C678   1.413       .  A
C678       Br679   1.932       .  S
C683        C684   1.412       .  A
C683        C688   1.409   1_545  A
C683       Br690   1.932       .  S
C684        C685   1.410       .  A
C685        C686   1.409       .  A
C685       Br692   1.922       .  S
C686        C687   1.412   1_545  A
C686       Br691   1.933   1_545  S
C687        C688   1.408       .  A
C688       Br689   1.924       .  S
C693        C694   1.417       .  A
C693        C698   1.418       .  A
C693       Br700   1.928       .  S
C694        C695   1.417       .  A
C695        C696   1.406       .  A
C695       Br702   1.935       .  S
C696        C697   1.415       .  A
C696       Br701   1.939       .  S
C697        C698   1.414       .  A
C698       Br699   1.930       .  S
C703        C704   1.413       .  A
C703        C708   1.417       .  A
C703       Br710   1.929       .  S
C704        C705   1.428       .  A
C705        C706   1.409   1_565  A
C705       Br712   1.941   1_565  S
C706        C707   1.409       .  A
C706       Br711   1.939       .  S
C707        C708   1.418   1_545  A
C708       Br709   1.930       .  S
C713        C714   1.415       .  A
C713        C718   1.419       .  A
C713       Br720   1.931       .  S
C714        C715   1.428       .  A
C715        C716   1.408       .  A
C715       Br722   1.943   1_556  S
C716        C717   1.407       .  A
C716       Br721   1.933   1_545  S
C717        C718   1.419       .  A
C718       Br719   1.932       .  S
C723       C1144   1.409       .  A
C723       Br730   1.933       .  S
C724        C725   1.407       .  A
C725        C726   1.408       .  A
C725       Br732   1.918       .  S
C726       C1559   1.412       .  A
C726       Br731   1.933       .  S
C727       C1558   1.412   1_455  A
C727        C728   1.410       .  A
C728       C1139   1.409   1_456  A
C733        C734   1.418       .  A
C733        C738   1.408       .  A
C733       Br740   1.931       .  S
C734       C1279   1.487       .  S
C734        C735   1.416       .  A
C735        C736   1.406       .  A
C735      Br1574   1.933       .  S
C736        C737   1.406       .  A
C736       Br741   1.928       .  S
C737        C738   1.407       .  A
C738       Br739   1.934       .  S
Br742      C1567   1.933   1_455  S
C743        C744   1.409       .  A
C743        C748   1.408       .  A
C743       Br750   1.933       .  S
C744        C745   1.404       .  A
C745        C746   1.406       .  A
C745       Br752   1.930       .  S
C746        C747   1.417       .  A
C746       Br751   1.934       .  S
C747        C748   1.415       .  A
C748       Br749   1.930       .  S
C753        C754   1.417       .  A
C753        C758   1.416       .  A
C753       Br760   1.933       .  S
C754        C755   1.409       .  A
C755        C756   1.410       .  A
C755       Br762   1.935       .  S
C756        C757   1.428       .  A
C757        C758   1.415       .  A
C758       Br759   1.931       .  S
C763        C764   1.405       .  A
C763        C768   1.413       .  A
C763       Br770   1.933       .  S
C764        C765   1.418       .  A
C765        C766   1.420       .  A
C765       Br772   1.932       .  S
C766        C767   1.419       .  A
C766       Br771   1.933       .  S
C767        C768   1.433       .  A
C768       Br769   1.940       .  S
C773        C774   1.405       .  A
C773        C778   1.409       .  A
C773       Br780   1.929       .  S
C774        C775   1.410       .  A
C775        C776   1.407       .  A
C775       Br782   1.933       .  S
C776        C777   1.416       .  A
C776       Br781   1.932       .  S
C777        C778   1.417       .  A
C778       Br779   1.931       .  S
C783        C784   1.414       .  A
C783        C788   1.401       .  A
C783       Br790   1.935       .  S
C784        C785   1.422       .  A
C785        C786   1.406       .  A
C785       Br792   1.928       .  S
C786        C787   1.400       .  A
C786       Br791   1.932       .  S
C787       C1257   1.464       .  S
C787        C788   1.408       .  A
C788      Br1621   1.928       .  S
Br789      C1620   1.928   1_455  S
C793        C794   1.411       .  A
C793        C798   1.414       .  A
C793       Br800   1.928       .  S
C794        C795   1.412       .  A
C795        C796   1.410       .  A
C796        C797   1.412       .  A
C797        C798   1.410       .  A
C798       Br799   1.927       .  S
C803        C804   1.427       .  A
C803        C808   1.411       .  A
C803       Br810   1.940       .  S
C804        C805   1.416       .  A
C805        C806   1.420       .  A
C805       Br812   1.930       .  S
C806        C807   1.416       .  A
C806       Br811   1.929       .  S
C807        C808   1.410       .  A
C808       Br809   1.935   1_545  S
C813        C814   1.431       .  A
C813        C818   1.408       .  A
C814        C815   1.421       .  A
C815        C816   1.420       .  A
C815       Br822   1.930       .  S
C816        C817   1.414       .  A
C816       Br821   1.930       .  S
C817        C818   1.404       .  A
C818       Br819   1.930   1_565  S
C823       C1656   1.405   1_545  A
C823        C828   1.412       .  A
C823      Br1662   1.931       .  S
C824       C1655   1.405   1_565  A
C824        C825   1.422   1_556  A
C825       C1242   1.411   1_455  A
C826       C1241   1.411       .  A
C826       Br831   1.930       .  S
C827        C828   1.422   1_554  A
C828       Br829   1.933       .  S
Br830      C1655   1.931       .  S
O833       Cr851   1.950       .  S
O833        C841   1.254       .  A
O834       Cr851   2.022       .  S
O834        C835   1.268       .  A
C835        O836   1.260       .  A
C835       C1223   1.498   1_565  S
O836       Cr852   1.990       .  S
O837       Cr852   2.071       .  S
O837        C838   1.281       .  A
C838        O839   1.250       .  A
C838       C1240   1.488       .  S
O839       Cr853   1.933       .  S
O840       Cr853   2.021       .  S
O840        C841   1.271       .  A
O842       Cr851   2.023       .  S
O842        C850   1.270       .  A
O843       Cr851   1.949       .  S
O843        C844   1.256       .  A
C844        O845   1.277       .  A
C844       C1190   1.474       .  S
O845       Cr852   2.045       .  S
O846       Cr852   1.961       .  S
O846        C847   1.246       .  A
C847        O848   1.270       .  A
C847       C1646   1.511       .  S
O848       Cr853   2.054       .  S
O849       Cr853   1.986       .  S
O849        C850   1.264       .  A
C850       C1210   1.485       .  S
Cr851       O854   1.762       .  S
Cr852       O854   1.759       .  S
Cr853       O854   1.773       .  S
O855       Cr873   2.025       .  S
O855        C863   1.269       .  A
O856       Cr873   1.928       .  S
O856        C857   1.249       .  A
C857        O858   1.280       .  A
C857       C1143   1.477       .  S
O858       Cr874   2.067       .  S
O859       Cr874   1.978       .  S
O859        C860   1.257       .  A
C860        O861   1.272       .  A
C860       C1180   1.501       .  S
O861       Cr875   2.034       .  S
O862       Cr875   1.966       .  S
O862        C863   1.259       .  A
O864       Cr873   1.976       .  S
O864        C872   1.263       .  A
O865       Cr873   2.047       .  S
O865        C866   1.268       .  A
C866        O867   1.244       .  A
C866       C1589   1.503       .  S
O867       Cr874   1.961       .  S
O868       Cr874   2.032       .  S
O868        C869   1.274       .  A
C869        O870   1.256       .  A
C869       C1160   1.469       .  S
O870       Cr875   1.950       .  S
O871       Cr875   2.038       .  S
O871        C872   1.275       .  A
C872       C1213   1.486       .  S
Cr873       O876   1.770       .  S
Cr874       O876   1.760       .  S
Cr875       O876   1.758       .  S
O877       Cr895   2.029       .  S
O877        C885   1.273       .  A
O878       Cr895   1.923       .  S
O878        C879   1.246       .  A
C879        O880   1.277       .  A
C879       C1103   1.472       .  S
O880       Cr896   2.060       .  S
O881       Cr896   1.983       .  S
O881        C882   1.257       .  A
C882        O883   1.268       .  A
C882       C1133   1.497   1_565  S
O883       Cr897   2.022       .  S
O884       Cr897   1.965       .  S
O884        C885   1.260       .  A
C885       C1193   1.489       .  S
O886       Cr895   1.984       .  S
O886        C894   1.264       .  A
O887       Cr895   2.059       .  S
O887        C888   1.272       .  A
C888        O889   1.243       .  A
C888       C1120   1.504       .  S
O889       Cr896   1.957       .  S
O890       Cr896   2.021       .  S
O890        C891   1.274       .  A
C891        O892   1.258       .  A
C891       C1200   1.483       .  S
O892       Cr897   1.949       .  S
O893       Cr897   2.025       .  S
O893        C894   1.272       .  A
C894       C1110   1.497       .  S
Cr895       O898   1.771       .  S
Cr896       O898   1.758       .  S
Cr897       O898   1.759       .  S
O899       Cr917   1.956       .  S
O899        C907   1.259       .  A
O900       Cr917   2.016       .  S
O900        C901   1.266       .  A
C901        O902   1.257       .  A
C901       C1073   1.490       .  S
O902       Cr918   1.984       .  S
O903       Cr918   2.055       .  S
O903        C904   1.277       .  A
C904        O905   1.249       .  A
C904       C1090   1.470       .  S
O905       Cr919   1.925       .  S
O906       Cr919   2.036       .  S
O906        C907   1.275       .  A
C907       C1163   1.485       .  S
O908       Cr917   2.006       .  S
O908        C916   1.267       .  A
O909       Cr917   1.951       .  S
O909        C910   1.257       .  A
C910        O911   1.275       .  A
C910       C1153   1.470       .  S
O911       Cr918   2.032       .  S
O912       Cr918   1.952       .  S
O912        C913   1.242       .  A
C913        O914   1.270       .  A
C913       C1083   1.507       .  S
O914       Cr919   2.055       .  S
O915       Cr919   1.992       .  S
O915        C916   1.265       .  A
C916       C1113   1.493       .  S
Cr917       O920   1.758       .  S
Cr918       O920   1.761       .  S
Cr919       O920   1.777       .  S
O921       Cr939   1.968       .  S
O921        C929   1.262       .  A
O922       Cr939   2.015       .  S
O922        C923   1.264       .  A
C923        O924   1.255       .  A
C923       C1080   1.499       .  S
O924       Cr940   1.986       .  S
O925       Cr940   2.051       .  S
O925        C926   1.276       .  A
C926        O927   1.250       .  A
C926       C1556   1.474   1_554  S
O927       Cr941   1.930       .  S
O928       Cr941   2.032       .  S
O928        C929   1.272       .  A
C929       C1050   1.489       .  S
O930       Cr939   2.018       .  S
O930        C938   1.268       .  A
O931       Cr939   1.947       .  S
O931        C932   1.258       .  A
C932        O933   1.279       .  A
C932       C1043   1.473       .  S
O933       Cr940   2.046       .  S
O934      Cr1356   1.968       .  S
O934        C935   1.248       .  A
C935        O936   1.271       .  A
C935       C1070   1.517       .  S
O936      Cr1357   2.034       .  S
O937       Cr941   1.982       .  S
O937        C938   1.262       .  A
C938       C1063   1.484       .  S
Cr939       O942   1.765       .  S
Cr940      O1350   1.968       .  S
Cr940       O942   1.769       .  S
Cr941      O1352   2.034   1_554  S
Cr941       O942   1.768       .  S
O943       Cr961   2.026       .  S
O943        C951   1.273       .  A
O944       Cr961   1.932       .  S
O944        C945   1.249       .  A
C945        O946   1.282       .  A
C945       C1659   1.487       .  S
O946       Cr962   2.074       .  S
O947       Cr962   1.980       .  S
O947        C948   1.260       .  A
C948        O949   1.269       .  A
C948       C1123   1.495       .  S
O949       Cr963   2.021       .  S
O950       Cr963   1.949       .  S
O950        C951   1.256       .  A
C951       C1020   1.473       .  S
O952       Cr961   1.979       .  S
O952        C960   1.262       .  A
O953      Cr1377   2.057       .  S
O953        C954   1.270       .  A
C954        O955   1.244       .  A
C954       C1130   1.504       .  S
O955      Cr1378   1.959       .  S
O956       Cr962   2.036       .  S
O956        C957   1.274       .  A
C957        O958   1.257       .  A
C957       C1033   1.469       .  S
O958       Cr963   1.952       .  S
O959       Cr963   2.024       .  S
O959        C960   1.271       .  A
C960       C1060   1.488       .  S
Cr961      O1369   2.057   1_554  S
Cr961       O964   1.770       .  S
Cr962      O1371   1.959       .  S
Cr962       O964   1.756       .  S
Cr963       O964   1.761       .  S
O965       Cr983   2.029       .  S
O965        C973   1.274       .  A
O966       Cr983   1.923       .  S
O966        C967   1.245       .  A
C967        O968   1.277       .  A
C967       C1093   1.473       .  S
O968       Cr984   2.058       .  S
O969       Cr984   1.980       .  S
O969        C970   1.256       .  A
C970        O971   1.264       .  A
C970       C1170   1.493       .  S
O971       Cr985   2.015       .  S
O972       Cr985   1.969       .  S
O972        C973   1.262       .  A
C973       C1040   1.491       .  S
O974       Cr983   1.989       .  S
O974        C982   1.264       .  A
O975       Cr983   2.055       .  S
O975        C976   1.272       .  A
C976        O977   1.246       .  A
C976       C1183   1.517       .  S
O977       Cr984   1.959       .  S
O978       Cr984   2.039       .  S
O978        C979   1.277       .  A
C979        O980   1.259       .  A
C979       C1053   1.473       .  S
O980       Cr985   1.957       .  S
O981       Cr985   2.010       .  S
O981        C982   1.268       .  A
C982       C1010   1.487       .  S
Cr983       O986   1.771       .  S
Cr984       O986   1.760       .  S
Cr985       O986   1.761       .  S
O987      Cr1005   1.958       .  S
O987        C995   1.258       .  A
O988      Cr1005   2.014       .  S
O988        C989   1.265       .  A
C989        O990   1.257       .  A
C989       C1233   1.496   1_545  S
O990      Cr1006   1.988       .  S
O991      Cr1006   2.065       .  S
O991        C992   1.280       .  A
C992        O993   1.247       .  A
C992       C1100   1.474       .  S
O993      Cr1007   1.918       .  S
O994      Cr1007   2.032       .  S
O994        C995   1.273       .  A
C995       C1030   1.484       .  S
O996      Cr1005   2.016       .  S
O996       C1004   1.270       .  A
O997      Cr1005   1.940       .  S
O997        C998   1.255       .  A
C998        O999   1.277       .  A
C998       C1023   1.496       .  S
O999      Cr1006   2.035       .  S
O1000     Cr1006   1.960       .  S
O1000      C1001   1.245       .  A
C1001      O1002   1.269       .  A
C1001      C1220   1.512       .  S
O1002     Cr1007   2.053       .  S
O1003     Cr1007   1.981       .  S
O1003      C1004   1.263       .  A
C1004      C1013   1.488       .  S
Cr1005     O1008   1.761       .  S
Cr1006     O1008   1.759       .  S
Cr1007     O1008   1.774       .  S
C1009      C1010   1.413       .  A
C1009      C1014   1.416       .  A
C1009     Br1016   1.929       .  S
C1010      C1011   1.413       .  A
C1011      C1012   1.403       .  A
C1011     Br1018   1.935       .  S
C1012      C1013   1.415       .  A
C1012     Br1017   1.936       .  S
C1013      C1014   1.415       .  A
C1014     Br1015   1.930       .  S
C1019      C1024   1.411       .  A
C1021      C1022   1.402       .  A
C1022      C1023   1.415       .  A
C1022     Br1027   1.933       .  S
C1023      C1024   1.431       .  A
C1024     Br1025   1.935       .  S
C1029      C1030   1.417       .  A
C1029      C1034   1.406       .  A
C1029     Br1036   1.932       .  S
C1030      C1031   1.414       .  A
C1031      C1032   1.406       .  A
C1031     Br1038   1.931       .  S
C1032      C1033   1.410       .  A
C1032     Br1037   1.932       .  S
C1033      C1034   1.403       .  A
C1034     Br1035   1.930       .  S
C1039      C1040   1.416       .  A
C1039      C1044   1.408       .  A
C1039     Br1046   1.931       .  S
C1040      C1041   1.418       .  A
C1041      C1042   1.410       .  A
C1041     Br1048   1.930       .  S
C1042      C1043   1.409       .  A
C1042     Br1047   1.933       .  S
C1043      C1044   1.405       .  A
C1044     Br1045   1.929       .  S
C1049      C1054   1.409       .  A
C1049     Br1056   1.931       .  S
C1050      C1051   1.415   1_655  A
C1051     Br1058   1.931   1_455  S
C1052      C1053   1.405       .  A
C1052     Br1057   1.928       .  S
C1053      C1054   1.409       .  A
C1054     Br1055   1.932       .  S
C1059      C1060   1.412       .  A
C1059      C1064   1.411       .  A
C1059     Br1066   1.931       .  S
C1060      C1477   1.416       .  A
C1061      C1476   1.416       .  A
C1061      C1062   1.411       .  A
C1061     Br1068   1.934       .  S
C1062      C1479   1.412       .  A
C1062     Br1067   1.934       .  S
C1063      C1478   1.412       .  A
C1063      C1064   1.412       .  A
C1064     Br1065   1.931       .  S
C1069      C1070   1.421       .  A
C1069      C1074   1.416       .  A
C1069     Br1076   1.933       .  S
C1070      C1071   1.432       .  A
C1071      C1072   1.413       .  A
C1071     Br1078   1.936       .  S
C1072      C1073   1.404       .  A
C1072     Br1077   1.932       .  S
C1073      C1074   1.410       .  A
C1074     Br1075   1.932       .  S
C1079      C1080   1.419       .  A
C1079      C1084   1.417       .  A
C1079     Br1086   1.930       .  S
C1080      C1081   1.410       .  A
C1081      C1082   1.411       .  A
C1081     Br1088   1.937       .  S
C1082      C1083   1.429       .  A
C1082     Br1087   1.942       .  S
C1083      C1084   1.413       .  A
C1084     Br1085   1.930       .  S
C1089      C1090   1.410       .  A
C1089      C1094   1.411       .  A
C1089     Br1096   1.925       .  S
C1090      C1091   1.407       .  A
C1091      C1092   1.406       .  A
C1091     Br1098   1.932       .  S
C1092      C1093   1.409       .  A
C1092     Br1097   1.919       .  S
C1093      C1094   1.413       .  A
C1094     Br1095   1.932       .  S
C1099      C1100   1.412       .  A
C1099      C1104   1.408   1_545  A
C1099     Br1106   1.932       .  S
C1100      C1101   1.410       .  A
C1101      C1102   1.409       .  A
C1101     Br1108   1.922       .  S
C1102      C1103   1.412   1_545  A
C1102     Br1107   1.933   1_545  S
C1103      C1104   1.408       .  A
C1104     Br1105   1.924       .  S
C1109      C1110   1.417       .  A
C1109      C1114   1.418       .  A
C1109     Br1116   1.928       .  S
C1110      C1111   1.417       .  A
C1111      C1112   1.406       .  A
C1111     Br1118   1.935       .  S
C1112      C1113   1.415       .  A
C1112     Br1117   1.939       .  S
C1113      C1114   1.414       .  A
C1114     Br1115   1.930       .  S
C1119      C1120   1.413       .  A
C1119      C1124   1.417       .  A
C1119     Br1126   1.929       .  S
C1120      C1121   1.428       .  A
C1121      C1122   1.409   1_565  A
C1121     Br1128   1.941   1_565  S
C1122      C1123   1.409       .  A
C1122     Br1127   1.939       .  S
C1123      C1124   1.418   1_545  A
C1124     Br1125   1.930       .  S
C1129      C1130   1.415       .  A
C1129      C1134   1.419       .  A
C1129     Br1136   1.931       .  S
C1130      C1131   1.428       .  A
C1131      C1132   1.408       .  A
C1131     Br1138   1.943       .  S
C1132      C1133   1.407       .  A
C1132     Br1137   1.933   1_545  S
C1133      C1134   1.419       .  A
C1134     Br1135   1.932       .  S
C1139      C1556   1.410   1_554  A
C1139     Br1146   1.933       .  S
C1140      C1342   1.474       .  S
C1140      C1555   1.410       .  A
C1140      C1141   1.407       .  A
C1141      C1142   1.408       .  A
C1141     Br1148   1.918       .  S
C1142     Br1147   1.933       .  S
C1143      C1144   1.410       .  A
C1144     Br1561   1.917       .  S
Br1145     C1560   1.917   1_554  S
C1149      C1150   1.418       .  A
C1149      C1154   1.408       .  A
C1149     Br1156   1.931       .  S
C1150      C1151   1.416       .  A
C1151      C1152   1.406       .  A
C1152      C1153   1.406       .  A
C1152     Br1157   1.928       .  S
C1153      C1154   1.407       .  A
C1154     Br1155   1.934       .  S
C1159      C1160   1.409       .  A
C1159      C1164   1.408       .  A
C1159     Br1166   1.933       .  S
C1160      C1161   1.404       .  A
C1161      C1162   1.406       .  A
C1161     Br1168   1.930       .  S
C1162      C1163   1.417       .  A
C1162     Br1167   1.934       .  S
C1163      C1164   1.415       .  A
C1164     Br1165   1.930       .  S
C1169      C1170   1.417       .  A
C1169      C1174   1.416       .  A
C1169     Br1176   1.933       .  S
C1170      C1171   1.409       .  A
C1171      C1172   1.410       .  A
C1171     Br1178   1.935       .  S
C1172      C1173   1.428       .  A
C1172     Br1593   1.941   1_554  S
C1173      C1282   1.503   1_554  S
C1173      C1174   1.415       .  A
C1174     Br1175   1.931       .  S
Br1177     C1588   1.941       .  S
C1179      C1180   1.405       .  A
C1179      C1184   1.413       .  A
C1179     Br1186   1.933       .  S
C1180      C1181   1.418       .  A
C1181      C1182   1.420       .  A
C1181     Br1188   1.932       .  S
C1182      C1183   1.419       .  A
C1182     Br1187   1.933       .  S
C1183      C1184   1.433       .  A
C1184     Br1185   1.940       .  S
C1189      C1190   1.405       .  A
C1189      C1194   1.409       .  A
C1189     Br1196   1.929       .  S
C1190      C1191   1.410       .  A
C1191      C1192   1.407       .  A
C1191     Br1198   1.933       .  S
C1192      C1193   1.416       .  A
C1192     Br1197   1.932       .  S
C1193      C1194   1.417       .  A
C1194     Br1195   1.931       .  S
C1199      C1200   1.414       .  A
C1199      C1204   1.401       .  A
C1199     Br1206   1.935       .  S
C1200      C1201   1.422       .  A
C1201      C1202   1.406       .  A
C1201     Br1208   1.928       .  S
C1202      C1203   1.400   1_655  A
C1202     Br1207   1.932   1_655  S
C1203      C1204   1.408   1_455  A
C1209      C1210   1.411       .  A
C1209      C1214   1.414       .  A
C1209     Br1216   1.928       .  S
C1210      C1211   1.412       .  A
C1211      C1212   1.410       .  A
C1211     Br1634   1.931       .  S
C1212      C1213   1.412       .  A
C1212     Br1633   1.931       .  S
C1213      C1214   1.410       .  A
C1214     Br1215   1.927       .  S
Br1217     C1628   1.931       .  S
Br1218     C1627   1.931       .  S
C1219      C1220   1.427       .  A
C1219      C1224   1.411       .  A
C1219     Br1226   1.940       .  S
C1220      C1221   1.416       .  A
C1221      C1222   1.420       .  A
C1221     Br1228   1.930       .  S
C1222      C1223   1.416       .  A
C1222     Br1227   1.929       .  S
C1223      C1224   1.410       .  A
C1224     Br1225   1.935   1_545  S
C1229      C1230   1.431       .  A
C1229      C1234   1.408       .  A
C1229     Br1652   1.942   1_554  S
C1230      C1263   1.511   1_554  S
C1230      C1231   1.421       .  A
C1231      C1232   1.420       .  A
C1231     Br1238   1.930       .  S
C1232      C1233   1.414       .  A
C1232     Br1237   1.930       .  S
C1233      C1234   1.404       .  A
C1234     Br1235   1.930   1_565  S
Br1236     C1645   1.942       .  S
C1239      C1244   1.411   1_455  A
C1240      C1241   1.422       .  A
C1241     Br1664   1.931       .  S
C1242      C1659   1.404   1_565  A
C1242     Br1247   1.930       .  S
C1243      C1361   1.487       .  S
C1243      C1658   1.404   1_545  A
C1243      C1244   1.422       .  A
C1244     Br1245   1.933       .  S
Br1248     C1657   1.931       .  S
O1249     Cr1267   1.950       .  S
O1249      C1257   1.254       .  A
O1250     Cr1267   2.022       .  S
O1250      C1251   1.268       .  A
C1251      O1252   1.260       .  A
C1251      C1639   1.498   1_565  S
O1252     Cr1268   1.990       .  S
O1253     Cr1268   2.071       .  S
O1253      C1254   1.281       .  A
C1254      O1255   1.250       .  A
C1254      C1656   1.488       .  S
O1255     Cr1269   1.933       .  S
O1256     Cr1269   2.021       .  S
O1256      C1257   1.271       .  A
O1258     Cr1267   2.023       .  S
O1258      C1266   1.270       .  A
O1259     Cr1267   1.949       .  S
O1259      C1260   1.256       .  A
C1260      O1261   1.277       .  A
C1260      C1606   1.474       .  S
O1261     Cr1268   2.045       .  S
O1262     Cr1268   1.961       .  S
O1262      C1263   1.246       .  A
C1263      O1264   1.270       .  A
O1264     Cr1269   2.054       .  S
O1265     Cr1269   1.986       .  S
O1265      C1266   1.264       .  A
C1266      C1626   1.485       .  S
Cr1267     O1270   1.762       .  S
Cr1268     O1270   1.759       .  S
Cr1269     O1270   1.773       .  S
O1271     Cr1289   2.025       .  S
O1271      C1279   1.269       .  A
O1272     Cr1289   1.928       .  S
O1272      C1273   1.249       .  A
C1273      O1274   1.280       .  A
C1273      C1559   1.477       .  S
O1274     Cr1290   2.067       .  S
O1275     Cr1290   1.978       .  S
O1275      C1276   1.257       .  A
C1276      O1277   1.272       .  A
C1276      C1596   1.500       .  S
O1277     Cr1291   2.034       .  S
O1278     Cr1291   1.966       .  S
O1278      C1279   1.259       .  A
O1280     Cr1289   1.976       .  S
O1280      C1288   1.263       .  A
O1281     Cr1289   2.047       .  S
O1281      C1282   1.268       .  A
C1282      O1283   1.244       .  A
O1283     Cr1290   1.961       .  S
O1284     Cr1290   2.032       .  S
O1284      C1285   1.274       .  A
C1285      O1286   1.256       .  A
C1285      C1576   1.469       .  S
O1286     Cr1291   1.950       .  S
O1287     Cr1291   2.038       .  S
O1287      C1288   1.275       .  A
C1288      C1629   1.486       .  S
Cr1289     O1292   1.770       .  S
Cr1290     O1292   1.760       .  S
Cr1291     O1292   1.758       .  S
O1293     Cr1311   2.029       .  S
O1293      C1301   1.273       .  A
O1294     Cr1311   1.923       .  S
O1294      C1295   1.246       .  A
C1295      O1296   1.277       .  A
C1295      C1519   1.472       .  S
O1296     Cr1312   2.060       .  S
O1297     Cr1312   1.983       .  S
O1297      C1298   1.257       .  A
C1298      O1299   1.268       .  A
C1298      C1549   1.497   1_565  S
O1299     Cr1313   2.022       .  S
O1300     Cr1313   1.965       .  S
O1300      C1301   1.260       .  A
C1301      C1609   1.489       .  S
O1302     Cr1311   1.984       .  S
O1302      C1310   1.264       .  A
O1303     Cr1311   2.059       .  S
O1303      C1304   1.272       .  A
C1304      O1305   1.243       .  A
C1304      C1536   1.504       .  S
O1305     Cr1312   1.957       .  S
O1306     Cr1312   2.021       .  S
O1306      C1307   1.274       .  A
C1307      O1308   1.258       .  A
C1307      C1616   1.483       .  S
O1308     Cr1313   1.949       .  S
O1309     Cr1313   2.025       .  S
O1309      C1310   1.272       .  A
C1310      C1526   1.497       .  S
Cr1311     O1314   1.771       .  S
Cr1312     O1314   1.758       .  S
Cr1313     O1314   1.759       .  S
O1315     Cr1333   1.956       .  S
O1315      C1323   1.259       .  A
O1316     Cr1333   2.016       .  S
O1316      C1317   1.266       .  A
C1317      O1318   1.257       .  A
C1317      C1489   1.490       .  S
O1318     Cr1334   1.984       .  S
O1319     Cr1334   2.055       .  S
O1319      C1320   1.277       .  A
C1320      O1321   1.249       .  A
C1320      C1506   1.471       .  S
O1321     Cr1335   1.926       .  S
O1322     Cr1335   2.036       .  S
O1322      C1323   1.275       .  A
C1323      C1579   1.485       .  S
O1324     Cr1333   2.006       .  S
O1324      C1332   1.267       .  A
O1325     Cr1333   1.951       .  S
O1325      C1326   1.257       .  A
C1326      O1327   1.275       .  A
C1326      C1569   1.470       .  S
O1327     Cr1334   2.032       .  S
O1328     Cr1334   1.952       .  S
O1328      C1329   1.242       .  A
C1329      O1330   1.270       .  A
C1329      C1499   1.507       .  S
O1330     Cr1335   2.055       .  S
O1331     Cr1335   1.992       .  S
O1331      C1332   1.265       .  A
C1332      C1529   1.493       .  S
Cr1333     O1336   1.758       .  S
Cr1334     O1336   1.761       .  S
Cr1335     O1336   1.777       .  S
O1337     Cr1355   1.968       .  S
O1337      C1345   1.262       .  A
O1338     Cr1355   2.015       .  S
O1338      C1339   1.264       .  A
C1339      O1340   1.255       .  A
C1339      C1496   1.499       .  S
O1340     Cr1356   1.986       .  S
O1341     Cr1356   2.051       .  S
O1341      C1342   1.276       .  A
C1342      O1343   1.250       .  A
O1343     Cr1357   1.930       .  S
O1344     Cr1357   2.032       .  S
O1344      C1345   1.272       .  A
C1345      C1466   1.489       .  S
O1346     Cr1355   2.018       .  S
O1346      C1354   1.268       .  A
O1347     Cr1355   1.947       .  S
O1347      C1348   1.258       .  A
C1348      O1349   1.279       .  A
C1348      C1459   1.473       .  S
O1349     Cr1356   2.046       .  S
O1350      C1351   1.248   1_554  A
C1351      O1352   1.271       .  A
C1351      C1486   1.516       .  S
O1353     Cr1357   1.982       .  S
O1353      C1354   1.262       .  A
C1354      C1479   1.484       .  S
Cr1355     O1358   1.765       .  S
Cr1356     O1358   1.769       .  S
Cr1357     O1358   1.768       .  S
O1359     Cr1377   2.026       .  S
O1359      C1367   1.273       .  A
O1360     Cr1377   1.932       .  S
O1360      C1361   1.249       .  A
C1361      O1362   1.282       .  A
O1362     Cr1378   2.074       .  S
O1363     Cr1378   1.980       .  S
O1363      C1364   1.260       .  A
C1364      O1365   1.269       .  A
C1364      C1539   1.495       .  S
O1365     Cr1379   2.021       .  S
O1366     Cr1379   1.949       .  S
O1366      C1367   1.256       .  A
C1367      C1436   1.473       .  S
O1368     Cr1377   1.979       .  S
O1368      C1376   1.262       .  A
O1369      C1370   1.270       .  A
C1370      O1371   1.244   1_556  A
C1370      C1546   1.504       .  S
O1372     Cr1378   2.036       .  S
O1372      C1373   1.274       .  A
C1373      O1374   1.257       .  A
C1373      C1449   1.469       .  S
O1374     Cr1379   1.952       .  S
O1375     Cr1379   2.024       .  S
O1375      C1376   1.271       .  A
C1376      C1476   1.488       .  S
Cr1377     O1380   1.770       .  S
Cr1378     O1380   1.756       .  S
Cr1379     O1380   1.761       .  S
O1381     Cr1399   2.029       .  S
O1381      C1389   1.273       .  A
O1382     Cr1399   1.923       .  S
O1382      C1383   1.245       .  A
C1383      O1384   1.277       .  A
C1383      C1509   1.473       .  S
O1384     Cr1400   2.058       .  S
O1385     Cr1400   1.980       .  S
O1385      C1386   1.256       .  A
C1386      O1387   1.264       .  A
C1386      C1586   1.493       .  S
O1387     Cr1401   2.016       .  S
O1388     Cr1401   1.969       .  S
O1388      C1389   1.262       .  A
C1389      C1456   1.491       .  S
O1390     Cr1399   1.989       .  S
O1390      C1398   1.264       .  A
O1391     Cr1399   2.055       .  S
O1391      C1392   1.272       .  A
C1392      O1393   1.246       .  A
C1392      C1599   1.517       .  S
O1393     Cr1400   1.959       .  S
O1394     Cr1400   2.039       .  S
O1394      C1395   1.277       .  A
C1395      O1396   1.259       .  A
C1395      C1469   1.473       .  S
O1396     Cr1401   1.957       .  S
O1397     Cr1401   2.010       .  S
O1397      C1398   1.268       .  A
C1398      C1426   1.487       .  S
Cr1399     O1402   1.771       .  S
Cr1400     O1402   1.760       .  S
Cr1401     O1402   1.761       .  S
O1403     Cr1421   1.958       .  S
O1403      C1411   1.258       .  A
O1404     Cr1421   2.014       .  S
O1404      C1405   1.265       .  A
C1405      O1406   1.257       .  A
C1405      C1649   1.496   1_545  S
O1406     Cr1422   1.988       .  S
O1407     Cr1422   2.065       .  S
O1407      C1408   1.280       .  A
C1408      O1409   1.247       .  A
C1408      C1516   1.474       .  S
O1409     Cr1423   1.919       .  S
O1410     Cr1423   2.031       .  S
O1410      C1411   1.273       .  A
C1411      C1446   1.484       .  S
O1412     Cr1421   2.016       .  S
O1412      C1420   1.270       .  A
O1413     Cr1421   1.940       .  S
O1413      C1414   1.255       .  A
C1414      O1415   1.277       .  A
C1414      C1439   1.496       .  S
O1415     Cr1422   2.035       .  S
O1416     Cr1422   1.960       .  S
O1416      C1417   1.245       .  A
C1417      O1418   1.269       .  A
C1417      C1636   1.512       .  S
O1418     Cr1423   2.053       .  S
O1419     Cr1423   1.981       .  S
O1419      C1420   1.263       .  A
C1420      C1429   1.488       .  S
Cr1421     O1424   1.761       .  S
Cr1422     O1424   1.759       .  S
Cr1423     O1424   1.774       .  S
C1425      C1426   1.413       .  A
C1425      C1430   1.416       .  A
C1425     Br1432   1.929       .  S
C1426      C1427   1.413       .  A
C1427      C1428   1.403       .  A
C1427     Br1434   1.935       .  S
C1428      C1429   1.415       .  A
C1428     Br1433   1.936       .  S
C1429      C1430   1.415       .  A
C1430     Br1431   1.930       .  S
C1435      C1440   1.411       .  A
C1437      C1438   1.402       .  A
C1438      C1439   1.415       .  A
C1438     Br1443   1.933       .  S
C1439      C1440   1.431       .  A
C1440     Br1441   1.935       .  S
C1445      C1446   1.417       .  A
C1445      C1450   1.406       .  A
C1445     Br1452   1.932       .  S
C1446      C1447   1.414       .  A
C1447      C1448   1.406       .  A
C1447     Br1454   1.931       .  S
C1448      C1449   1.410       .  A
C1448     Br1453   1.932       .  S
C1449      C1450   1.403       .  A
C1450     Br1451   1.930       .  S
C1455      C1456   1.416       .  A
C1455      C1460   1.408       .  A
C1455     Br1462   1.931       .  S
C1456      C1457   1.418       .  A
C1457      C1458   1.410       .  A
C1457     Br1464   1.930       .  S
C1458      C1459   1.409       .  A
C1458     Br1463   1.933       .  S
C1459      C1460   1.405       .  A
C1460     Br1461   1.929       .  S
C1465      C1470   1.409       .  A
C1465     Br1472   1.931       .  S
C1466      C1467   1.415   1_655  A
C1467     Br1474   1.931   1_455  S
C1468      C1469   1.405       .  A
C1468     Br1473   1.928       .  S
C1469      C1470   1.409       .  A
C1470     Br1471   1.932       .  S
C1475      C1476   1.412       .  A
C1475      C1480   1.411       .  A
C1475     Br1482   1.931       .  S
C1477      C1478   1.411       .  A
C1477     Br1484   1.934   1_554  S
C1478     Br1483   1.934   1_554  S
C1479      C1480   1.412       .  A
C1480     Br1481   1.931       .  S
C1485      C1486   1.421       .  A
C1485      C1490   1.416       .  A
C1485     Br1492   1.933       .  S
C1486      C1487   1.432       .  A
C1487      C1488   1.413       .  A
C1487     Br1494   1.936       .  S
C1488      C1489   1.404       .  A
C1488     Br1493   1.932       .  S
C1489      C1490   1.410       .  A
C1490     Br1491   1.932       .  S
C1495      C1496   1.419       .  A
C1495      C1500   1.417       .  A
C1495     Br1502   1.930       .  S
C1496      C1497   1.410       .  A
C1497      C1498   1.411       .  A
C1497     Br1504   1.937       .  S
C1498      C1499   1.429       .  A
C1498     Br1503   1.942       .  S
C1499      C1500   1.413       .  A
C1500     Br1501   1.930       .  S
C1505      C1506   1.410       .  A
C1505      C1510   1.411       .  A
C1505     Br1512   1.925       .  S
C1506      C1507   1.407       .  A
C1507      C1508   1.406       .  A
C1507     Br1514   1.932       .  S
C1508      C1509   1.409       .  A
C1508     Br1513   1.919       .  S
C1509      C1510   1.413       .  A
C1510     Br1511   1.932       .  S
C1515      C1516   1.412       .  A
C1515      C1520   1.409   1_545  A
C1515     Br1522   1.932       .  S
C1516      C1517   1.410       .  A
C1517      C1518   1.409       .  A
C1517     Br1524   1.922       .  S
C1518      C1519   1.412   1_545  A
C1518     Br1523   1.933   1_545  S
C1519      C1520   1.408       .  A
C1520     Br1521   1.924       .  S
C1525      C1526   1.417       .  A
C1525      C1530   1.418       .  A
C1525     Br1532   1.928       .  S
C1526      C1527   1.417       .  A
C1527      C1528   1.406       .  A
C1527     Br1534   1.935       .  S
C1528      C1529   1.415       .  A
C1528     Br1533   1.939       .  S
C1529      C1530   1.414       .  A
C1530     Br1531   1.930       .  S
C1535      C1536   1.413       .  A
C1535      C1540   1.417       .  A
C1535     Br1542   1.929       .  S
C1536      C1537   1.428       .  A
C1537      C1538   1.409   1_565  A
C1537     Br1544   1.941   1_565  S
C1538      C1539   1.409       .  A
C1538     Br1543   1.939       .  S
C1539      C1540   1.418   1_545  A
C1540     Br1541   1.930       .  S
C1545      C1546   1.415       .  A
C1545      C1550   1.419       .  A
C1545     Br1552   1.931       .  S
C1546      C1547   1.428       .  A
C1547      C1548   1.408       .  A
C1547     Br1554   1.943   1_556  S
C1548      C1549   1.407       .  A
C1548     Br1553   1.933   1_545  S
C1549      C1550   1.419       .  A
C1550     Br1551   1.932       .  S
C1555     Br1562   1.933       .  S
C1556      C1557   1.407       .  A
C1557      C1558   1.408       .  A
C1557     Br1564   1.918       .  S
C1558     Br1563   1.933       .  S
C1559      C1560   1.410       .  A
C1565      C1566   1.418       .  A
C1565      C1570   1.408       .  A
C1565     Br1572   1.931       .  S
C1566      C1567   1.416       .  A
C1567      C1568   1.406       .  A
C1568      C1569   1.406       .  A
C1568     Br1573   1.928       .  S
C1569      C1570   1.407       .  A
C1570     Br1571   1.934       .  S
C1575      C1576   1.409       .  A
C1575      C1580   1.408       .  A
C1575     Br1582   1.933       .  S
C1576      C1577   1.404       .  A
C1577      C1578   1.406       .  A
C1577     Br1584   1.930       .  S
C1578      C1579   1.417       .  A
C1578     Br1583   1.934       .  S
C1579      C1580   1.415       .  A
C1580     Br1581   1.930       .  S
C1585      C1586   1.417       .  A
C1585      C1590   1.416       .  A
C1585     Br1592   1.933       .  S
C1586      C1587   1.409       .  A
C1587      C1588   1.410       .  A
C1587     Br1594   1.935       .  S
C1588      C1589   1.428       .  A
C1589      C1590   1.415       .  A
C1590     Br1591   1.931       .  S
C1595      C1596   1.405       .  A
C1595      C1600   1.413       .  A
C1595     Br1602   1.933       .  S
C1596      C1597   1.418       .  A
C1597      C1598   1.420       .  A
C1597     Br1604   1.932       .  S
C1598      C1599   1.419       .  A
C1598     Br1603   1.933       .  S
C1599      C1600   1.433       .  A
C1600     Br1601   1.940       .  S
C1605      C1606   1.405       .  A
C1605      C1610   1.409       .  A
C1605     Br1612   1.929       .  S
C1606      C1607   1.410       .  A
C1607      C1608   1.407       .  A
C1607     Br1614   1.933       .  S
C1608      C1609   1.416       .  A
C1608     Br1613   1.932       .  S
C1609      C1610   1.417       .  A
C1610     Br1611   1.931       .  S
C1615      C1616   1.414       .  A
C1615      C1620   1.401       .  A
C1615     Br1622   1.935       .  S
C1616      C1617   1.422       .  A
C1617      C1618   1.406       .  A
C1617     Br1624   1.928       .  S
C1618      C1619   1.400   1_655  A
C1618     Br1623   1.932   1_655  S
C1619      C1620   1.408   1_455  A
C1625      C1626   1.411       .  A
C1625      C1630   1.414       .  A
C1625     Br1632   1.928       .  S
C1626      C1627   1.412       .  A
C1627      C1628   1.410       .  A
C1628      C1629   1.412       .  A
C1629      C1630   1.410       .  A
C1630     Br1631   1.927       .  S
C1635      C1636   1.427       .  A
C1635      C1640   1.411       .  A
C1635     Br1642   1.940       .  S
C1636      C1637   1.416       .  A
C1637      C1638   1.420       .  A
C1637     Br1644   1.930       .  S
C1638      C1639   1.416       .  A
C1638     Br1643   1.929       .  S
C1639      C1640   1.410       .  A
C1640     Br1641   1.935   1_545  S
C1645      C1646   1.431       .  A
C1645      C1650   1.408       .  A
C1646      C1647   1.421       .  A
C1647      C1648   1.420       .  A
C1647     Br1654   1.930       .  S
C1648      C1649   1.414       .  A
C1648     Br1653   1.930       .  S
C1649      C1650   1.404       .  A
C1650     Br1651   1.930   1_565  S
C1655      C1660   1.412   1_455  A
C1656      C1657   1.422   1_556  A
C1658     Br1663   1.930       .  S
C1659      C1660   1.422   1_554  A
C1660     Br1661   1.933       .  S
