geometry optimzed in LAMMPS
_audit_creation_date              2020-11-30 
_audit_creation_method            'lammps2cif' 
_symmetry_space_group_name_H-M    'P1' 
_symmetry_Int_Tables_number       1 
_symmetry_cell_setting            triclinic 
loop_ 
_symmetry_equiv_pos_as_xyz 
  x,y,z 
_cell_length_a                    43.40364232 
_cell_length_b                    35.6792477622874 
_cell_length_c                    38.785537830419784 
_cell_angle_alpha                 89.76545887764472 
_cell_angle_beta                  90.51719525528294 
_cell_angle_gamma                 90.18238280176435 
loop_ 
_atom_site_label 
_atom_site_type_symbol 
_atom_site_fract_x 
_atom_site_fract_y 
_atom_site_fract_z 
_atom_site_charge 
O1          O  0.15418032  0.95339333  0.39611716    -0.82300
C2          C  0.03897980  0.89963116  0.37309786     0.97100
O3          O  0.06020596  0.91416418  0.35550910    -0.71400
O4          O  0.10993418  0.95331933  0.34202908    -0.75000
Al5        Al  0.10201926  0.90644072  0.36478837     1.49000
C6          C  0.10536947  0.98697053  0.35027263     0.92300
O7          O  0.07969157  0.98472685  0.44544827    -0.81200
O8          O  0.09577225  0.91289683  0.47880329    -0.74800
Al9        Al  0.11567459  0.96618110  0.41931448     1.90100
O10         O  0.04698028  0.93759899  0.44192931    -0.73800
O11         O  0.09879922  0.85428575  0.43253705    -0.73700
O12         O  0.04490297  0.88181433  0.40085428    -0.79300
O13         O  0.09589797  0.85429827  0.37624466    -0.77600
O14         O  0.09723783  0.92408127  0.40698165    -1.13700
O15         O  0.14374982  0.89844342  0.37243513    -0.72900
C16         C  0.16295865  0.92253630  0.38277677     0.97800
C17         C  0.05278245  0.97086392  0.44994608     0.94200
Al18       Al  0.07385848  0.89832497  0.43627042     1.55600
O19         O  0.10077584  0.99523865  0.38128874    -0.77500
C20         C  0.09990725  0.83661699  0.40427303     0.98400
C21         C  0.11994716  0.93231334  0.48355172     0.93300
O22         O  0.13419445  0.94422338  0.45787156    -0.82800
O23         O  0.13290218  0.56558874  0.45392398    -0.82300
C24         C  0.03725116  0.61354111  0.36912353     0.97100
O25         O  0.04357204  0.62934377  0.39760180    -0.71400
O26         O  0.04449785  0.57115994  0.43657226    -0.75000
Al27       Al  0.07186625  0.61080606  0.43241609     1.49000
C28         C  0.05074435  0.53816408  0.44517867     0.92300
O29         O  0.09736554  0.51555971  0.37830581    -0.81200
O30         O  0.14260397  0.61059995  0.36771508    -0.74800
Al31       Al  0.11350541  0.54379475  0.41551838     1.90100
O32         O  0.10614779  0.55709064  0.33795117    -0.73800
O33         O  0.09631096  0.65703042  0.37385742    -0.73700
O34         O  0.05824281  0.59920231  0.35133752    -0.79300
O35         O  0.09726208  0.65407651  0.43022605    -0.77600
O36         O  0.09533500  0.58607157  0.40299840    -1.13700
O37         O  0.09350496  0.59535392  0.47440629    -0.72900
C38         C  0.11862713  0.57806616  0.47927534     0.97800
C39         C  0.10171939  0.52348514  0.34716803     0.94200
Al40       Al  0.10036464  0.60458418  0.36087838     1.55600
O41         O  0.07798613  0.52522876  0.44234326    -0.77500
C42         C  0.09945492  0.67316668  0.40285942     0.98400
C43         C  0.16129401  0.58549203  0.37705311     0.93300
O44         O  0.15166011  0.55548000  0.39137636    -0.82800
O45         O  0.38081190  0.94127509  0.25831117    -0.82300
C46         C  0.28794658  0.89274853  0.34349257     0.97100
O47         O  0.29332124  0.87539962  0.31551985    -0.71400
O48         O  0.29388664  0.93189601  0.27561010    -0.75000
Al49       Al  0.32139640  0.89361826  0.27985719     1.49000
C50         C  0.29904968  0.96482408  0.26641092     0.92300
O51         O  0.34749348  0.98937320  0.33532898    -0.81200
O52         O  0.39291017  0.89425025  0.34317629    -0.74800
Al53       Al  0.36239009  0.96184480  0.29714556     1.90100
O54         O  0.35836353  0.94729465  0.37455872    -0.73800
O55         O  0.34633690  0.84785146  0.33830738    -0.73700
O56         O  0.30964678  0.90638917  0.36115672    -0.79300
O57         O  0.34720638  0.85076851  0.28202073    -0.77600
O58         O  0.34509680  0.91898889  0.30923803    -1.13700
O59         O  0.34219793  0.90995748  0.23712103    -0.72900
C60         C  0.36643810  0.92931730  0.23251601     0.97800
C61         C  0.35324555  0.98098034  0.36623328     0.94200
Al62       Al  0.35125785  0.90029886  0.35113762     1.55600
O63         O  0.32563284  0.97970213  0.27102878    -0.77500
C64         C  0.34977854  0.83176359  0.30942059     0.98400
C65         C  0.41128662  0.91945306  0.33345188     0.93300
O66         O  0.40144540  0.95009893  0.32028415    -0.82800
O67         O  0.40526853  0.55311771  0.31795906    -0.82300
C68         C  0.28880048  0.60749671  0.33865860     0.97100
O69         O  0.30966875  0.59157893  0.35598051    -0.71400
O70         O  0.35804581  0.55082993  0.37039443    -0.75000
Al71       Al  0.35178579  0.59850437  0.34855235     1.49000
C72         C  0.35553148  0.51737231  0.36039355     0.92300
O73         O  0.33304141  0.52181251  0.26485907    -0.81200
O74         O  0.34707686  0.59318290  0.23410523    -0.74800
Al75       Al  0.36791746  0.54061747  0.29274794     1.90100
O76         O  0.29866525  0.56693354  0.27010876    -0.73800
O77         O  0.34962635  0.65122493  0.28050478    -0.73700
O78         O  0.29526640  0.62378147  0.31036920    -0.79300
O79         O  0.34713432  0.65102600  0.33689587    -0.77600
O80         O  0.34832104  0.58168980  0.30575741    -1.13700
O81         O  0.39363700  0.60604247  0.34430853    -0.72900
C82         C  0.41304041  0.58238478  0.33454143     0.97800
C83         C  0.30568238  0.53431162  0.26134814     0.94200
Al84       Al  0.32488353  0.60710812  0.27608331     1.55600
O85         O  0.35281973  0.51001472  0.32888887    -0.77500
C86         C  0.35140897  0.66866366  0.30886361     0.98400
C87         C  0.37214669  0.57578911  0.22954630     0.93300
O88         O  0.38692686  0.56452380  0.25534540    -0.82800
O89         O  0.34735088  0.45227658  0.06576726    -0.82300
C90         C  0.46181864  0.39459361  0.08745517     0.97100
O91         O  0.44085609  0.40934413  0.10519221    -0.71400
O92         O  0.39153346  0.44988270  0.11976140    -0.75000
Al93       Al  0.39872712  0.40327058  0.09585040     1.49000
C94         C  0.39580612  0.48374618  0.11159323     0.92300
O95         O  0.42111757  0.48436261  0.01628595    -0.81200
O96         O  0.40286620  0.41054375  0.48462414    -0.74800
Al97       Al  0.38557333  0.46515157  0.04241791     1.90100
O98         O  0.45360565  0.43707463  0.01831461    -0.73800
O99         O  0.40141195  0.35308639  0.02695674    -0.73700
O100        O  0.45541129  0.37977914  0.05848712    -0.79300
O101        O  0.40381367  0.35133097  0.08321217    -0.77600
O102        O  0.40345960  0.42226833  0.05381731    -1.13700
O103        O  0.35675932  0.39640580  0.08867349    -0.72900
C104        C  0.33828677  0.42190765  0.07989574     0.95400
C105        C  0.44782416  0.47067315  0.01141444     0.94200
Al106      Al  0.42636761  0.39735563  0.02388263     1.55600
O107        O  0.40147350  0.49234385  0.08084452    -0.77500
C108        C  0.39994662  0.33454332  0.05480113     0.98400
C109        C  0.37821146  0.42914616  0.48051754     0.93300
O110        O  0.36505072  0.44175977  0.50642664    -0.82800
O111        O  0.36586152  0.05987558  0.00693160    -0.82300
C112        C  0.46115890  0.10983550  0.08934757     0.97100
O113        O  0.45496973  0.12647543  0.06106400    -0.71400
O114        O  0.45308427  0.06933194  0.02193796    -0.75000
Al115      Al  0.42588533  0.10817398  0.02649481     1.49000
C116        C  0.44777201  0.03578299  0.01480568     0.92300
O117        O  0.40113852  0.01343476  0.08470638    -0.81200
O118        O  0.35604873  0.10918013  0.09085862    -0.74800
Al119      Al  0.38516795  0.04027147  0.04604600     1.90100
O120        O  0.39092393  0.05601330  0.12306599    -0.73800
O121        O  0.40324265  0.15496566  0.08460753    -0.73700
O122        O  0.44007369  0.09622386  0.10773547    -0.79300
O123        O  0.40068070  0.15148440  0.02843976    -0.77600
O124        O  0.40291694  0.08333311  0.05678742    -1.13700
O125        O  0.40151378  0.09276346  0.48783382    -0.72900
C126        C  0.37704700  0.07334697  0.48495226     0.97800
C127        C  0.39556826  0.02213061  0.11538722     0.94200
Al128      Al  0.39805571  0.10266517  0.09841521     1.55600
O129        O  0.42110507  0.02147931  0.01982717    -0.77500
C130        C  0.39974691  0.17094555  0.05548256     0.98400
C131        C  0.33724217  0.08388354  0.08206433     0.93300
O132        O  0.34657942  0.05285528  0.06951644    -0.82800
O133        O  0.11765052  0.44809394  0.20492503    -0.82300
C134        C  0.21456492  0.39707157  0.12511141     0.97100
O135        O  0.20789431  0.38228291  0.15396573    -0.71400
O136        O  0.20449041  0.44009025  0.19210143    -0.75000
Al137      Al  0.17805137  0.40023755  0.18685990     1.49000
C138        C  0.19870092  0.47383793  0.19737391     0.92300
O139        O  0.15288997  0.49379877  0.12726650    -0.81200
O140        O  0.10916923  0.39780382  0.11949149    -0.74800
Al141      Al  0.13693598  0.46717006  0.16559038     1.90100
O142        O  0.14432642  0.45078370  0.08864889    -0.73800
O143        O  0.15627215  0.35299407  0.12791074    -0.73700
O144        O  0.19373832  0.41071640  0.10590577    -0.79300
O145        O  0.15339567  0.35617121  0.18406243    -0.77600
O146        O  0.15531357  0.42434888  0.15561276    -1.13700
O147        O  0.15512233  0.41554989  0.22721229    -0.72900
C148        C  0.13080700  0.43446384  0.23093353     0.97800
C149        C  0.14791528  0.48478237  0.09650793     0.94200
Al150      Al  0.15132262  0.40464538  0.11379007     1.55600
O151        O  0.17204963  0.48739774  0.19174408    -0.77500
C152        C  0.15233265  0.33699923  0.15678187     0.98400
C153        C  0.09011522  0.42272896  0.12784191     0.93300
O154        O  0.09903511  0.45331151  0.14164337    -0.82800
O155        O  0.09652386  0.05764929  0.14342560    -0.82300
C156        C  0.21194090  0.11084995  0.12277703     0.97100
O157        O  0.19039777  0.09697861  0.10496225    -0.71400
O158        O  0.14088528  0.05718665  0.09127329    -0.75000
Al159      Al  0.14861343  0.10476225  0.11358193     1.49000
C160        C  0.14498033  0.02358436  0.10070227     0.92300
O161        O  0.16907842  0.02723398  0.19722113    -0.81200
O162        O  0.15463510  0.09743714  0.22806358    -0.74800
Al163      Al  0.13417156  0.04565164  0.16857582     1.90100
O164        O  0.20316560  0.07252875  0.19154263    -0.73800
O165        O  0.15243972  0.15576847  0.18185168    -0.73700
O166        O  0.20635138  0.12841823  0.15057482    -0.79300
O167        O  0.15464500  0.15723061  0.12550647    -0.77600
O168        O  0.15329890  0.08702729  0.15594962    -1.13700
O169        O  0.10678685  0.11279765  0.12018846    -0.72900
C170        C  0.08764062  0.08848955  0.12999688     0.97800
C171        C  0.19606644  0.04066990  0.20236746     0.94200
Al172      Al  0.17695431  0.11205041  0.18564473     1.55600
O173        O  0.14970477  0.01592643  0.13202695    -0.77500
C174        C  0.15105399  0.17410718  0.15395301     0.98400
C175        C  0.12945150  0.07968135  0.23167108     0.93300
O176        O  0.11506260  0.06973641  0.20520148    -0.82800
C177        C  0.14760456  0.21573510  0.15493693    -0.00600
C178        C  0.15300325  0.23450218  0.18629595    -0.12500
C179        C  0.15358672  0.27377664  0.18805779     0.01600
C180        C  0.14829415  0.29545901  0.15793068    -0.00700
C181        C  0.14127695  0.27667459  0.12701351    -0.12500
C182        C  0.14100269  0.23747258  0.12517642     0.01500
H183        H  0.15807243  0.21847354  0.20946786     0.14500
H184        H  0.13661143  0.29271379  0.10373775     0.14500
C185        C  0.13385629  0.22066715  0.09223624     0.36100
C186        C  0.16136272  0.29064312  0.22080952     0.36000
N187        N  0.12798501  0.20732503  0.06582481    -0.44200
N188        N  0.16769636  0.30403902  0.24707469    -0.44200
C189        C  0.99291307  0.10747490  0.10460301    -0.00600
C190        C  0.01246964  0.13810503  0.10929209    -0.12500
C191        C  0.04299443  0.13270249  0.11970790     0.01600
C192        C  0.05462092  0.09581700  0.12396306    -0.00700
C193        C  0.03454423  0.06527620  0.12026516    -0.12500
C194        C  0.00380879  0.07081515  0.11090476     0.01500
H195        H  0.00370681  0.16627585  0.10536350     0.14500
H196        H  0.04306227  0.03691722  0.12359071     0.14500
C197        C  0.48606230  0.03443907  0.09746775     0.36100
C198        C  0.06117340  0.16564152  0.12724371     0.36000
N199        N  0.47158250  0.00794214  0.09144745    -0.44200
N200        N  0.07518973  0.19237079  0.13367733    -0.44200
C201        C  0.24372241  0.10400722  0.11174334    -0.00600
C202        C  0.26193321  0.13385629  0.10044837    -0.12500
C203        C  0.29182124  0.12751735  0.08853901     0.01600
C204        C  0.30420057  0.09071711  0.08877157    -0.00700
C205        C  0.28546411  0.06076107  0.09912479    -0.12500
C206        C  0.25540808  0.06710395  0.11045618     0.01500
H207        H  0.25258990  0.16202448  0.10035596     0.14500
H208        H  0.29463918  0.03251353  0.09952345     0.14500
C209        C  0.23727667  0.03530469  0.12150890     0.36100
C210        C  0.30884988  0.15919749  0.07523086     0.36000
N211        N  0.22284411  0.00963083  0.13004709    -0.44200
N212        N  0.32230279  0.18462548  0.06438392    -0.44200
C213        C  0.24690049  0.40008038  0.11409395    -0.00600
C214        C  0.25356404  0.39749587  0.07876383    -0.12500
C215        C  0.28339786  0.40426945  0.06676735     0.01600
C216        C  0.30625612  0.41676825  0.08993273    -0.00700
C217        C  0.29994404  0.41849860  0.12514305    -0.12500
C218        C  0.27088599  0.40919155  0.13757720     0.01500
H219        H  0.23561292  0.38921981  0.06067132     0.14500
H220        H  0.31820056  0.42612633  0.14315303     0.14500
C221        C  0.26693196  0.40923746  0.17448078     0.36100
C222        C  0.29066213  0.39504676  0.03158799     0.36000
N223        N  0.26477324  0.40898885  0.20420365    -0.44200
N224        N  0.29656497  0.38652038  0.00366572    -0.44200
C225        C  0.05725005  0.41582410  0.11956670    -0.00600
C226        C  0.05020924  0.39036269  0.09301676    -0.12500
C227        C  0.01983122  0.38319243  0.08290230     0.01600
C228        C  0.99545776  0.40185777  0.09945216    -0.00700
C229        C  0.00245550  0.42590517  0.12719906    -0.12500
C230        C  0.03291971  0.43316811  0.13720920     0.01500
H231        H  0.06861845  0.37634579  0.07946679     0.14500
H232        H  0.48250797  0.43372083  0.14197683     0.14500
C233        C  0.03825753  0.45844921  0.16561797     0.36100
C234        C  0.01472280  0.35650533  0.05551958     0.36000
N235        N  0.04222966  0.47895667  0.18826801    -0.44200
N236        N  0.01076193  0.33502542  0.03363095    -0.44200
C237        C  0.39605692  0.29277415  0.05441921    -0.00600
C238        C  0.40058167  0.27309059  0.02352723    -0.12500
C239        C  0.40075604  0.23366881  0.02273111     0.01600
C240        C  0.39640826  0.21270337  0.05351332    -0.00700
C241        C  0.39051847  0.23243058  0.08401095    -0.12500
C242        C  0.39011881  0.27171379  0.08476655     0.01500
H243        H  0.40503310  0.28853271  0.99991752     0.14500
H244        H  0.38652346  0.21705770  0.10776984     0.14500
C245        C  0.38353165  0.28929389  0.11734174     0.36100
C246        C  0.37878865  0.21597703  0.49912278     0.36000
N247        N  0.37822791  0.30322493  0.14351226    -0.44200
N248        N  0.37111252  0.20155110  0.47377676    -0.44200
C249        C  0.36703143  0.44215632  0.44586221    -0.00600
C250        C  0.38690231  0.43961951  0.41746875    -0.12500
C251        C  0.38223467  0.46191499  0.38787679     0.01600
C252        C  0.35715881  0.48698129  0.38623893    -0.00700
C253        C  0.33584333  0.48708731  0.41286269    -0.12500
C254        C  0.34025944  0.46505708  0.44234969     0.01500
H255        H  0.40757407  0.42273573  0.41946559     0.14500
H256        H  0.31650531  0.50629090  0.41147502     0.14500
C257        C  0.31809241  0.47001059  0.46950172     0.36100
C258        C  0.40511330  0.46138288  0.36108956     0.36000
N259        N  0.29769641  0.46787187  0.98425090    -0.44200
N260        N  0.42346685  0.46109076  0.33963301    -0.44200
C261        C  0.39170818  0.51343922  0.13783620    -0.00600
C262        C  0.41563042  0.52154796  0.16103601    -0.12500
C263        C  0.41096231  0.54570910  0.18905519     0.01600
C264        C  0.38152100  0.56186072  0.19475876    -0.00700
C265        C  0.35843059  0.55601904  0.16966374    -0.12500
C266        C  0.36319542  0.53188873  0.14163946     0.01500
H267        H  0.43777629  0.50802081  0.15787713     0.14500
H268        H  0.33577658  0.56802455  0.17326002     0.14500
C269        C  0.33776259  0.52469203  0.11834134     0.36100
C270        C  0.43681154  0.55245796  0.21185079     0.36000
N271        N  0.31724885  0.51910640  0.09978753    -0.44200
N272        N  0.45799474  0.55751394  0.22955081    -0.44200
C273        C  0.22408542  0.49526700  0.21271807    -0.00600
C274        C  0.22681864  0.49420225  0.24871698    -0.12500
C275        C  0.25478029  0.50286323  0.26503535     0.01600
C276        C  0.28064379  0.51285613  0.24527469    -0.00700
C277        C  0.27802765  0.51372002  0.20921999    -0.12500
C278        C  0.25007700  0.50468949  0.19284419     0.01500
H279        H  0.20742325  0.48487372  0.26403743     0.14500
H280        H  0.29749951  0.52273997  0.19391546     0.14500
C281        C  0.24851918  0.50483859  0.15563037     0.36100
C282        C  0.25670293  0.50071738  0.30215883     0.36000
N283        N  0.24715659  0.50494653  0.12581735    -0.44200
N284        N  0.25838474  0.49843054  0.33187233    -0.44200
C285        C  0.22050283  0.02065232  0.22158067    -0.00600
C286        C  0.22443410  0.98241665  0.21648340    -0.12500
C287        C  0.25013575  0.96404031  0.23026310     0.01600
C288        C  0.27284965  0.98429487  0.24955296    -0.00700
C289        C  0.26850009  0.02244808  0.25524693    -0.12500
C290        C  0.24239253  0.04058651  0.24207560     0.01500
H291        H  0.20790436  0.96708433  0.20077295     0.14500
H292        H  0.28498248  0.03784478  0.27095377     0.14500
C293        C  0.23823000  0.07948592  0.25112086     0.36100
C294        C  0.25244142  0.92436069  0.22345882     0.36000
N295        N  0.23500941  0.11059058  0.25858564    -0.44200
N296        N  0.25377298  0.89252447  0.21808448    -0.44200
C297        C  0.35481181  0.79024093  0.30815081    -0.00600
C298        C  0.35770710  0.77033193  0.33938733    -0.12500
C299        C  0.35879631  0.73105361  0.34022312     0.01600
C300        C  0.35599518  0.71028976  0.30923790    -0.00700
C301        C  0.35540249  0.73020014  0.27786482    -0.12500
C302        C  0.35518322  0.76956600  0.27698887     0.01500
H303        H  0.35870254  0.78546516  0.36354798     0.14500
H304        H  0.35425979  0.71501371  0.25374599     0.14500
C305        C  0.35491613  0.78753931  0.24356629     0.36100
C306        C  0.36289261  0.71321071  0.37345037     0.36000
N307        N  0.35492246  0.80176106  0.21669235    -0.44200
N308        N  0.36639956  0.69905528  0.40009767    -0.44200
C309        C  0.39160074  0.99234931  0.14193269    -0.00600
C310        C  0.36469700  0.97029335  0.14113333    -0.12500
C311        C  0.35704581  0.94627350  0.16876429     0.01600
C312        C  0.37682410  0.94353939  0.19791031    -0.00700
C313        C  0.40525267  0.96299071  0.19668211    -0.12500
C314        C  0.41240087  0.98766481  0.16960169     0.01500
H315        H  0.34866219  0.97351277  0.11970898     0.14500
H316        H  0.42121094  0.96112208  0.21829834     0.14500
C317        C  0.44065352  0.00898908  0.17171578     0.36100
C318        C  0.32794977  0.92677575  0.16711439     0.36000
N319        N  0.46337808  0.02587586  0.17402355    -0.44200
N320        N  0.30460031  0.91118024  0.16516096    -0.44200
C321        C  0.35537596  0.01058328  0.39295314    -0.00600
C322        C  0.33599372  0.00840595  0.42140900    -0.12500
C323        C  0.34029637  0.03190974  0.44994053     0.01600
C324        C  0.36565408  0.05754021  0.45122602    -0.00700
C325        C  0.38368949  0.06141940  0.42142236    -0.12500
C326        C  0.37850761  0.03854252  0.39234796     0.01500
H327        H  0.31782962  0.98743647  0.42171777     0.14500
H328        H  0.40307822  0.08063995  0.42153296     0.14500
C329        C  0.39873580  0.04226525  0.36320400     0.36100
C330        C  0.31892852  0.02725784  0.47804604     0.36000
N331        N  0.41484058  0.04522482  0.33972835    -0.44200
N332        N  0.30183908  0.02327616  0.50052146    -0.44200
C333        C  0.47287632  0.48934304  0.49370699    -0.00600
C334        C  0.47344511  0.49184967  0.45758304    -0.12500
C335        C  0.50016121  0.50380652  0.44040522     0.01600
C336        C  0.02525572  0.51688919  0.46079710    -0.00700
C337        C  0.02391094  0.51501062  0.49686303    -0.12500
C338        C  0.99861051  0.50416717  0.01449618     0.01500
H339        H  0.45331927  0.48335712  0.44273999     0.14500
H340        H  0.04384655  0.52319607  0.51213764     0.14500
C341        C  0.99875027  0.50105901  0.05161203     0.36100
C342        C  0.49977686  0.50574270  0.40320397     0.36000
N343        N  0.99854794  0.49902740  0.08138030    -0.44200
N344        N  0.49962707  0.50700410  0.37338153    -0.44200
C345        C  0.44516138  0.58971417  0.34340913    -0.00600
C346        C  0.46674473  0.59206760  0.31696904    -0.12500
C347        C  0.49709587  0.60276730  0.32415518     0.01600
C348        C  0.50617713  0.60990343  0.35858525    -0.00700
C349        C  0.48411405  0.60873398  0.38477570    -0.12500
C350        C  0.45372740  0.59909996  0.37741733     0.01500
H351        H  0.45957897  0.58700292  0.29078682     0.14500
H352        H  0.49072527  0.61409380  0.41127874     0.14500
C353        C  0.43195064  0.59847297  0.40540352     0.36100
C354        C  0.01712185  0.61258651  0.29557691     0.36000
N355        N  0.41456709  0.59832465  0.42785335    -0.44200
N356        N  0.03377408  0.61885705  0.27312834    -0.44200
C357        C  0.19454750  0.59177917  0.36976613    -0.00600
C358        C  0.20293525  0.62354616  0.35007101    -0.12500
C359        C  0.23351243  0.63024547  0.34068458     0.01600
C360        C  0.25665426  0.60492925  0.35102772    -0.00700
C361        C  0.24866292  0.57446826  0.37236082    -0.12500
C362        C  0.21805595  0.56743550  0.38145132     0.01500
H363        H  0.18549948  0.64323630  0.34142128     0.14500
H364        H  0.26631342  0.55505163  0.38103042     0.14500
C365        C  0.21173930  0.53472017  0.40228917     0.36100
C366        C  0.24050425  0.66379456  0.32126340     0.36000
N367        N  0.20674812  0.50843797  0.41893931    -0.44200
N368        N  0.24617113  0.69078838  0.30590015    -0.44200
C369        C  0.13136032  0.56418604  0.01447028    -0.00600
C370        C  0.10851088  0.55660927  0.03890583    -0.12500
C371        C  0.11397245  0.53168884  0.06628576     0.01600
C372        C  0.14300992  0.51435005  0.07018069    -0.00700
C373        C  0.16676468  0.52433363  0.04771910    -0.12500
C374        C  0.16128198  0.54925022  0.02016678     0.01500
H375        H  0.08546779  0.56761209  0.03503978     0.14500
H376        H  0.18933278  0.51179291  0.05107001     0.14500
C377        C  0.18436689  0.56237110  0.49843540     0.36100
C378        C  0.08859513  0.52250455  0.08857885     0.36000
N379        N  0.20465249  0.57076636  0.48082417    -0.44200
N380        N  0.06788864  0.51555456  0.10607123    -0.44200
C381        C  0.11931916  0.44604486  0.26552459    -0.00600
C382        C  0.09086415  0.46501793  0.26680796    -0.12500
C383        C  0.08359145  0.48858304  0.29435694     0.01600
C384        C  0.10467669  0.49304638  0.32170039    -0.00700
C385        C  0.13113864  0.47051341  0.32284777    -0.12500
C386        C  0.13857658  0.44695538  0.29518645     0.01500
H387        H  0.07508798  0.46357377  0.24506008     0.14500
H388        H  0.14707310  0.47315132  0.34444150     0.14500
C389        C  0.16702864  0.42619989  0.29717668     0.36100
C390        C  0.05467197  0.50842397  0.29372119     0.36000
N391        N  0.18979228  0.40946513  0.29892493    -0.44200
N392        N  0.03126391  0.52384470  0.29327194    -0.44200
C393        C  0.25631213  0.90017611  0.35469006    -0.00600
C394        C  0.23702237  0.87045762  0.36385096    -0.12500
C395        C  0.20722347  0.87739329  0.37573529     0.01600
C396        C  0.19588210  0.91463626  0.37691149    -0.00700
C397        C  0.21567806  0.94433620  0.36890690    -0.12500
C398        C  0.24578679  0.93745439  0.35824764     0.01500
H399        H  0.24552305  0.84194117  0.36257509     0.14500
H400        H  0.20734764  0.97294652  0.36992482     0.14500
C401        C  0.26502349  0.96933725  0.35021959     0.36100
C402        C  0.18942093  0.84593324  0.38815915     0.36000
N403        N  0.27995281  0.99539814  0.34410072    -0.44200
N404        N  0.17551604  0.82066022  0.39857737    -0.44200
C405        C  0.44451135  0.91315202  0.33962509    -0.00600
C406        C  0.46393642  0.94420392  0.34422424    -0.12500
C407        C  0.49465771  0.93938989  0.35428668     0.01600
C408        C  0.50626219  0.90295053  0.36011696    -0.00700
C409        C  0.48730690  0.87188380  0.35476318    -0.12500
C410        C  0.45677660  0.87653182  0.34402053     0.01500
H411        H  0.45486465  0.97232971  0.34122071     0.14500
H412        H  0.49650152  0.84392337  0.35867282     0.14500
C413        C  0.43903008  0.84301966  0.33714899     0.36100
C414        C  0.01443175  0.97465043  0.36058982     0.36000
N415        N  0.42516350  0.81592049  0.33162760    -0.44200
N416        N  0.02930173  0.00125087  0.36475573    -0.44200
C417        C  0.10367300  0.79488994  0.40374274    -0.00600
C418        C  0.10257545  0.77477824  0.43493683    -0.12500
C419        C  0.10256772  0.73541546  0.43560291     0.01600
C420        C  0.10351809  0.71485786  0.40437869    -0.00700
C421        C  0.10629438  0.73500288  0.37332826    -0.12500
C422        C  0.10653362  0.77431167  0.37266118     0.01500
H423        H  0.10082980  0.78982852  0.45908031     0.14500
H424        H  0.10766870  0.72000342  0.34911914     0.14500
C425        C  0.10953139  0.79233091  0.33941628     0.36100
C426        C  0.10072923  0.71727982  0.46886671     0.36000
N427        N  0.11196050  0.80660584  0.31272008    -0.44200
N428        N  0.09929429  0.70279290  0.49555939    -0.44200
C429        C  0.10642988  0.01628950  0.32296471    -0.00600
C430        C  0.12658969  0.04714389  0.32620427    -0.12500
C431        C  0.13302803  0.07063081  0.29768433     0.01600
C432        C  0.11858566  0.06384575  0.26544755    -0.00700
C433        C  0.09600542  0.03524024  0.26380404    -0.12500
C434        C  0.09046442  0.01121916  0.29161194     0.01500
H435        H  0.13883466  0.05144998  0.35035995     0.14500
H436        H  0.08400659  0.02946511  0.23976300     0.14500
C437        C  0.06922062  0.98037010  0.28667668     0.36100
C438        C  0.15501784  0.10065754  0.30200583     0.36000
N439        N  0.05238885  0.95553533  0.28254650    -0.44200
N440        N  0.17251168  0.12490835  0.30556301    -0.44200
C441        C  0.12896351  0.94521178  0.01810219    -0.00600
C442        C  0.15691445  0.96553937  0.02028667    -0.12500
C443        C  0.16310961  0.99014415  0.04755261     0.01600
C444        C  0.14221348  0.99320415  0.07484359    -0.00700
C445        C  0.11591925  0.97004947  0.07489213    -0.12500
C446        C  0.10886173  0.94662315  0.04666268     0.01500
H447        H  0.17260807  0.96919974  0.49722300     0.14500
H448        H  0.09960998  0.97248865  0.09577052     0.14500
C449        C  0.07960815  0.92728753  0.04649985     0.36100
C450        C  0.19013551  0.01373383  0.04570330     0.36000
N451        N  0.05604583  0.91200821  0.04635290    -0.44200
N452        N  0.21170158  0.03273463  0.04367321    -0.44200
C453        C  0.02703371  0.99129787  0.46651373    -0.00600
C454        C  0.49430595  0.98012827  0.45343276    -0.12500
C455        C  0.46835787  0.99332560  0.47090015     0.01600
C456        C  0.47396465  0.01556346  0.99896748    -0.00700
C457        C  0.00492988  0.02650396  0.01301703    -0.12500
C458        C  0.03157328  0.01595429  0.49433743     0.01500
H459        H  0.49088529  0.96161698  0.43161498     0.14500
H460        H  0.00851882  0.04437238  0.03525081     0.14500
C461        C  0.06108890  0.02352771  0.00783457     0.36100
C462        C  0.43812189  0.98429007  0.45747715     0.36000
N463        N  0.08530694  0.03141688  0.01826626    -0.44200
N464        N  0.41393508  0.97707438  0.44655630    -0.44200
O465        O  0.15524969  0.95418450  0.89650935    -0.82300
C466        C  0.04017340  0.90056300  0.87006368     0.97100
O467        O  0.06170513  0.91543037  0.85329212    -0.71400
O468        O  0.11120032  0.95526146  0.84154287    -0.75000
Al469      Al  0.10328116  0.90790139  0.86355392     1.49000
C470        C  0.10701558  0.98879604  0.85047094     0.92300
O471        O  0.07996935  0.98499550  0.94536329    -0.81200
O472        O  0.09446183  0.91349173  0.97746029    -0.74800
Al473      Al  0.11638583  0.96663353  0.91935326     1.90100
O474        O  0.04666811  0.93884199  0.93890240    -0.73800
O475        O  0.09854001  0.85534683  0.93127387    -0.73700
O476        O  0.04550966  0.88271386  0.89791602    -0.79300
O477        O  0.09739532  0.85551917  0.87487988    -0.77600
O478        O  0.09781917  0.92504442  0.90581841    -1.13700
O479        O  0.14475536  0.90005533  0.87159429    -0.72900
C480        C  0.16401514  0.92378553  0.88230615     0.97800
C481        C  0.05270312  0.97156275  0.94849857     0.94200
Al482      Al  0.07357442  0.89930088  0.93420077     1.55600
O483        O  0.10229272  0.99653093  0.88159479    -0.77500
C484        C  0.10057708  0.83776682  0.90306526     0.98400
C485        C  0.11911338  0.93171533  0.98305546     0.93300
O486        O  0.13416122  0.94343594  0.95786259    -0.82800
O487        O  0.13520396  0.56608704  0.95411019    -0.82300
C488        C  0.03906731  0.61678093  0.87079317     0.97100
O489        O  0.04574248  0.63164591  0.89963423    -0.71400
O490        O  0.04652046  0.57315293  0.93823272    -0.75000
Al491      Al  0.07432408  0.61233928  0.93402001     1.49000
C492        C  0.05237617  0.53999945  0.94666634     0.92300
O493        O  0.09770735  0.51665446  0.87949061    -0.81200
O494        O  0.14437265  0.61048177  0.86837497    -0.74800
Al495      Al  0.11489576  0.54445123  0.91631652     1.90100
O496        O  0.10664641  0.55814157  0.83910217    -0.73800
O497        O  0.09896065  0.65786527  0.87528184    -0.73700
O498        O  0.05966834  0.60154317  0.85305176    -0.79300
O499        O  0.10013765  0.65550820  0.93168845    -0.77600
O500        O  0.09714658  0.58718711  0.90420017    -1.13700
O501        O  0.09633211  0.59598465  0.97563846    -0.72900
C502        C  0.12125975  0.57802866  0.97988531     0.97800
C503        C  0.10181217  0.52463492  0.84831792     0.94200
Al504      Al  0.10198202  0.60562495  0.86215224     1.55600
O505        O  0.07949703  0.52667404  0.94384643    -0.77500
C506        C  0.10229969  0.67428495  0.90408885     0.98400
C507        C  0.16270511  0.58448999  0.87640160     0.93300
O508        O  0.15287765  0.55488318  0.89122870    -0.82800
O509        O  0.38434345  0.93808601  0.75876384    -0.82300
C510        C  0.28916363  0.89579834  0.84257594     0.97100
O511        O  0.29442786  0.87791714  0.81489065    -0.71400
O512        O  0.29634354  0.93377093  0.77420178    -0.75000
Al513      Al  0.32304185  0.89463276  0.77938853     1.49000
C514        C  0.30266255  0.96592064  0.76361541     0.92300
O515        O  0.34976378  0.99043841  0.83236466    -0.81200
O516        O  0.39393015  0.89433888  0.84350005    -0.74800
Al517      Al  0.36537057  0.96142034  0.79574331     1.90100
O518        O  0.36004701  0.94953587  0.87301697    -0.73800
O519        O  0.34642528  0.84910960  0.83886838    -0.73700
O520        O  0.31088602  0.90940536  0.86020526    -0.79300
O521        O  0.34795707  0.85151863  0.78259480    -0.77600
O522        O  0.34692902  0.91971762  0.80859487    -1.13700
O523        O  0.34477487  0.90929450  0.73687197    -0.72900
C524        C  0.36999602  0.92679376  0.73273755     0.97800
C525        C  0.35513231  0.98296279  0.86353838     0.94200
Al526      Al  0.35235374  0.90186378  0.85083687     1.55600
O527        O  0.32974651  0.97955243  0.76775838    -0.77500
C528        C  0.34942860  0.83261563  0.81007505     0.98400
C529        C  0.41279209  0.91908520  0.83402373     0.93300
O530        O  0.40355960  0.94977828  0.82047700    -0.82800
O531        O  0.40576912  0.55278026  0.81509785    -0.82300
C532        C  0.28938627  0.60522923  0.83333174     0.97100
O533        O  0.31027624  0.59009951  0.85132507    -0.71400
O534        O  0.35941863  0.55069529  0.86677526    -0.75000
Al535      Al  0.35235225  0.59813643  0.84488949     1.49000
C536        C  0.35601486  0.51736645  0.85694984     0.92300
O537        O  0.33364229  0.52171032  0.76131272    -0.81200
O538        O  0.35127953  0.59673726  0.73071597    -0.74800
Al539      Al  0.36837923  0.54023377  0.78945106     1.90100
O540        O  0.30111593  0.56905548  0.76217980    -0.73800
O541        O  0.35112024  0.65245625  0.77868348    -0.73700
O542        O  0.29604926  0.62234925  0.80543609    -0.79300
O543        O  0.34656603  0.65065196  0.83464493    -0.77600
O544        O  0.34935871  0.58185953  0.80175125    -1.13700
O545        O  0.39438629  0.60636073  0.84078964    -0.72900
C546        C  0.41372437  0.58231863  0.83133643     0.97800
C547        C  0.30712525  0.53568454  0.75537889     0.94200
Al548      Al  0.32704894  0.60835400  0.77166564     1.55600
O549        O  0.35229759  0.51020305  0.82555998    -0.77500
C550        C  0.35104169  0.66925944  0.80731523     0.98400
C551        C  0.37566349  0.57783442  0.72672382     0.93300
O552        O  0.38817067  0.56276686  0.75233126    -0.82800
O553        O  0.34792839  0.45529616  0.56825017    -0.82300
C554        C  0.46207696  0.39606238  0.58944888     0.97100
O555        O  0.44159631  0.41195613  0.60690708    -0.71400
O556        O  0.39431837  0.45520721  0.62023374    -0.75000
Al557      Al  0.39936348  0.40668121  0.59893819     1.49000
C558        C  0.39888880  0.48835872  0.60980892     0.92300
O559        O  0.42053742  0.48202991  0.51400713    -0.81200
O560        O  0.40366420  0.41235835  0.98238385    -0.74800
Al561      Al  0.38558623  0.46517489  0.54268355     1.90100
O562        O  0.45349398  0.43554929  0.51949820    -0.73800
O563        O  0.40038136  0.35261742  0.53187467    -0.73700
O564        O  0.45498792  0.37961150  0.56145804    -0.79300
O565        O  0.40294787  0.35378759  0.58821384    -0.77600
O566        O  0.40352763  0.42306198  0.55601386    -1.13700
O567        O  0.35704462  0.40078614  0.59368768    -0.72900
C568        C  0.33871271  0.42607492  0.58410472     0.95400
C569        C  0.44746389  0.46845816  0.51028123     0.94200
Al570      Al  0.42581366  0.39640640  0.52666617     1.55600
O571        O  0.40293544  0.49488791  0.57833127    -0.77500
C572        C  0.39936167  0.33540065  0.56052263     0.98400
C573        C  0.37937376  0.43145064  0.97784578     0.93300
O574        O  0.36631805  0.44544539  0.00329925    -0.82800
O575        O  0.36404454  0.06263553  0.51175130    -0.82300
C576        C  0.46216205  0.10873278  0.59058887     0.97100
O577        O  0.45497378  0.12657426  0.56318308    -0.71400
O578        O  0.45197832  0.07016734  0.52342321    -0.75000
Al579      Al  0.42489179  0.10887523  0.52931849     1.49000
C580        C  0.44637321  0.03673975  0.51606236     0.92300
O581        O  0.40134472  0.01268590  0.58600921    -0.81200
O582        O  0.35789410  0.10841417  0.59714815    -0.74800
Al583      Al  0.38451133  0.04100734  0.54905549     1.90100
O584        O  0.39349392  0.05420085  0.62608769    -0.73800
O585        O  0.40448476  0.15411384  0.58950633    -0.73700
O586        O  0.44178551  0.09464919  0.60957652    -0.79300
O587        O  0.39958659  0.15242021  0.53330480    -0.77600
O588        O  0.40297491  0.08339158  0.56016593    -1.13700
O589        O  0.40345509  0.09227991  0.98509590    -0.72900
C590        C  0.37898015  0.07326595  0.98110269     0.97800
C591        C  0.39736965  0.02054016  0.61716321     0.94200
Al592      Al  0.39976688  0.10150295  0.60244096     1.55600
O593        O  0.41963219  0.02262019  0.52115875    -0.77500
C594        C  0.39953520  0.17102180  0.56104986     0.98400
C595        C  0.33850024  0.08409658  0.58789967     0.93300
O596        O  0.34696998  0.05327000  0.57428011    -0.82800
O597        O  0.11539253  0.44997778  0.70549622    -0.82300
C598        C  0.21407920  0.40152701  0.62720795     0.97100
O599        O  0.20685782  0.38576233  0.65545657    -0.71400
O600        O  0.20178719  0.44215724  0.69493295    -0.75000
Al601      Al  0.17591827  0.40237893  0.68771938     1.49000
C602        C  0.19623068  0.47608607  0.69945011     0.92300
O603        O  0.15043184  0.49729117  0.62858047    -0.81200
O604        O  0.10866983  0.40074289  0.61786695    -0.74800
Al605      Al  0.13479180  0.46954350  0.66638528     1.90100
O606        O  0.14411548  0.45461672  0.58924556    -0.73800
O607        O  0.15604363  0.35625519  0.62726104    -0.73700
O608        O  0.19354062  0.41522149  0.60764714    -0.79300
O609        O  0.15158953  0.35828597  0.68323964    -0.77600
O610        O  0.15373555  0.42711350  0.65621896    -1.13700
O611        O  0.15223868  0.41632004  0.72755335    -0.72900
C612        C  0.12831843  0.43579415  0.73138306     0.97800
C613        C  0.14647669  0.48858997  0.59759972     0.94200
Al614      Al  0.15098316  0.40824456  0.61391235     1.55600
O615        O  0.16983374  0.48999381  0.69279790    -0.77500
C616        C  0.15123717  0.33963397  0.65567978     0.98400
C617        C  0.08905334  0.42490761  0.62653549     0.93300
O618        O  0.09723876  0.45503679  0.64177384    -0.82800
O619        O  0.09801112  0.05949481  0.64472734    -0.82300
C620        C  0.21264674  0.11314176  0.62363250     0.97100
O621        O  0.19138199  0.09910520  0.60549686    -0.71400
O622        O  0.14183335  0.05958454  0.59128828    -0.75000
Al623      Al  0.14965342  0.10679476  0.61386804     1.49000
C624        C  0.14616787  0.02599514  0.60033715     0.92300
O625        O  0.17254411  0.02911506  0.69596343    -0.81200
O626        O  0.15617514  0.10043679  0.72827821    -0.74800
Al627      Al  0.13644108  0.04720588  0.66880399     1.90100
O628        O  0.20486045  0.07647672  0.69210206    -0.73800
O629        O  0.15255505  0.15844742  0.68165267    -0.73700
O630        O  0.20667285  0.13174016  0.65070900    -0.79300
O631        O  0.15550264  0.15919840  0.62541342    -0.77600
O632        O  0.15459153  0.08924782  0.65633043    -1.13700
O633        O  0.10797652  0.11443713  0.62063037    -0.72900
C634        C  0.08897960  0.09017796  0.63089471     0.97800
C635        C  0.19919318  0.04360671  0.70123514     0.94200
Al636      Al  0.17785646  0.11514142  0.68586984     1.55600
O637        O  0.15142344  0.01819288  0.63148385    -0.77500
C638        C  0.15138598  0.17646476  0.65351646     0.98400
C639        C  0.13183723  0.08129716  0.73252332     0.93300
O640        O  0.11774760  0.06947285  0.70652030    -0.82800
C641        C  0.14743909  0.21812482  0.65362195    -0.00600
C642        C  0.14677940  0.23710039  0.68535676    -0.12500
C643        C  0.14658372  0.27641998  0.68695503     0.01600
C644        C  0.14721055  0.29798298  0.65618370    -0.00700
C645        C  0.14601828  0.27895850  0.62451810    -0.12500
C646        C  0.14605974  0.23975351  0.62289890     0.01500
H647        H  0.14727740  0.22121481  0.70925029     0.14500
H648        H  0.14576299  0.29477832  0.60057819     0.14500
C649        C  0.14506592  0.22295132  0.58908355     0.36100
C650        C  0.14655541  0.29346489  0.72066724     0.36000
N651        N  0.14424606  0.20963645  0.56192835    -0.44200
N652        N  0.14647107  0.30703130  0.74772402    -0.44200
C653        C  0.99436237  0.10942747  0.60448450    -0.00600
C654        C  0.01396658  0.13998807  0.60942471    -0.12500
C655        C  0.04443698  0.13448672  0.62013209     0.01600
C656        C  0.05595297  0.09754182  0.62468446    -0.00700
C657        C  0.03590719  0.06707833  0.62050743    -0.12500
C658        C  0.00528135  0.07271106  0.61063848     0.01500
H659        H  0.00528168  0.16819153  0.60547967     0.14500
H660        H  0.04439926  0.03870123  0.62380538     0.14500
C661        C  0.48588777  0.03277626  0.60031104     0.36100
C662        C  0.06280620  0.16741636  0.62729072     0.36000
N663        N  0.47075918  0.00642738  0.59598243    -0.44200
N664        N  0.07713746  0.19405809  0.63319629    -0.44200
C665        C  0.24449638  0.10566765  0.61391993    -0.00600
C666        C  0.26442481  0.13565418  0.60822164    -0.12500
C667        C  0.29477123  0.12929387  0.59831495     0.01600
C668        C  0.30574020  0.09201023  0.59465490    -0.00700
C669        C  0.28546487  0.06201502  0.60009381    -0.12500
C670        C  0.25506901  0.06852991  0.60988580     0.01500
H671        H  0.25610044  0.16411818  0.61105042     0.14500
H672        H  0.29363074  0.03342500  0.59789940     0.14500
C673        C  0.23576423  0.03654548  0.61747185     0.36100
C674        C  0.31365422  0.16184906  0.59151182     0.36000
N675        N  0.22065338  0.01062074  0.62356038    -0.44200
N676        N  0.32843824  0.18825226  0.58622207    -0.44200
C677        C  0.24662286  0.40518213  0.61699295    -0.00600
C678        C  0.25381689  0.40272565  0.58181862    -0.12500
C679        C  0.28379265  0.40950600  0.57034569     0.01600
C680        C  0.30648774  0.42156906  0.59391609    -0.00700
C681        C  0.29962467  0.42343555  0.62902080    -0.12500
C682        C  0.27023219  0.41450965  0.64090804     0.01500
H683        H  0.23613174  0.39448446  0.56338350     0.14500
H684        H  0.31766027  0.43090188  0.64735433     0.14500
C685        C  0.26557899  0.41503515  0.67769477     0.36100
C686        C  0.29132339  0.40064729  0.53516575     0.36000
N687        N  0.26296534  0.41517398  0.70736686    -0.44200
N688        N  0.29734603  0.39246760  0.50719148    -0.44200
C689        C  0.05635213  0.41748667  0.61730541    -0.00600
C690        C  0.04998118  0.39204245  0.59045140    -0.12500
C691        C  0.01976114  0.38394715  0.58001193     0.01600
C692        C  0.99485932  0.40121167  0.59685569    -0.00700
C693        C  0.00127452  0.42571394  0.62445776    -0.12500
C694        C  0.03149745  0.43426289  0.63449227     0.01500
H695        H  0.06878201  0.37876571  0.57694953     0.14500
H696        H  0.48345526  0.43690971  0.64264168     0.14500
C697        C  0.03601864  0.46040808  0.66241235     0.36100
C698        C  0.01534461  0.35800569  0.55188662     0.36000
N699        N  0.03942891  0.48166355  0.68458777    -0.44200
N700        N  0.01196054  0.33723038  0.52931462    -0.44200
C701        C  0.39618436  0.29336003  0.56178214    -0.00600
C702        C  0.38856190  0.27351143  0.53153942    -0.12500
C703        C  0.38805397  0.23398974  0.53082508     0.01600
C704        C  0.39601450  0.21298686  0.56070680    -0.00700
C705        C  0.40233380  0.23285441  0.59123110    -0.12500
C706        C  0.40233676  0.27219238  0.59217169     0.01500
H707        H  0.38312753  0.28892695  0.50810111     0.14500
H708        H  0.40807649  0.21758703  0.61466733     0.14500
C709        C  0.40971196  0.28959447  0.62480063     0.36100
C710        C  0.40662055  0.21590414  0.99005713     0.36000
N711        N  0.41555660  0.30334397  0.65104579    -0.44200
N712        N  0.41127883  0.20181080  0.96379403    -0.44200
C713        C  0.36840208  0.44299107  0.94272522    -0.00600
C714        C  0.38948635  0.44239592  0.91535902    -0.12500
C715        C  0.38469855  0.46441111  0.88566294     0.01600
C716        C  0.35815115  0.48695522  0.88269793    -0.00700
C717        C  0.33573192  0.48484505  0.90816154    -0.12500
C718        C  0.34037458  0.46311098  0.93786195     0.01500
H719        H  0.41113576  0.42761264  0.91843322     0.14500
H720        H  0.31527223  0.50212770  0.90577979     0.14500
C721        C  0.31681760  0.46510910  0.96382962     0.36100
C722        C  0.40879959  0.46643623  0.86029094     0.36000
N723        N  0.30024227  0.47524108  0.49092433    -0.44200
N724        N  0.42817856  0.46819715  0.84004330    -0.44200
C725        C  0.39716953  0.51969961  0.63458081    -0.00600
C726        C  0.41948933  0.52262992  0.66057060    -0.12500
C727        C  0.41528783  0.54677582  0.68854301     0.01600
C728        C  0.38726796  0.56701789  0.69194589    -0.00700
C729        C  0.36660749  0.56714918  0.66379016    -0.12500
C730        C  0.37155232  0.54401714  0.63507959     0.01500
H731        H  0.43974378  0.50492286  0.65966803     0.14500
H732        H  0.34524742  0.58268751  0.66542066     0.14500
C733        C  0.34878159  0.54350988  0.60772360     0.36100
C734        C  0.43957751  0.54831372  0.71418572     0.36000
N735        N  0.33064182  0.54328987  0.58567301    -0.44200
N736        N  0.45938338  0.54907986  0.73433453    -0.44200
C737        C  0.22214465  0.49762017  0.71369131    -0.00600
C738        C  0.22887008  0.49245935  0.74884993    -0.12500
C739        C  0.25815101  0.50073514  0.76226215     0.01600
C740        C  0.28135150  0.51450725  0.74041575    -0.00700
C741        C  0.27467690  0.51981419  0.70523629    -0.12500
C742        C  0.24550062  0.51086578  0.69168680     0.01500
H743        H  0.21157382  0.48038615  0.76556519     0.14500
H744        H  0.29202982  0.53189917  0.68855249     0.14500
C745        C  0.24023226  0.51412540  0.65496787     0.36100
C746        C  0.26399958  0.49524232  0.79865351     0.36000
N747        N  0.23588912  0.51649559  0.62555601    -0.44200
N748        N  0.26897416  0.49066473  0.82772415    -0.44200
C749        C  0.22496585  0.02355311  0.71852856    -0.00600
C750        C  0.22803880  0.98500997  0.71416234    -0.12500
C751        C  0.25377899  0.96614291  0.72741755     0.01600
C752        C  0.27721746  0.98600664  0.74587167    -0.00700
C753        C  0.27420261  0.02454167  0.75018081    -0.12500
C754        C  0.24836310  0.04337435  0.73713808     0.01500
H755        H  0.21067091  0.96970723  0.69961054     0.14500
H756        H  0.29152708  0.03978477  0.76485704     0.14500
C757        C  0.24630253  0.08296719  0.74446693     0.36100
C758        C  0.25549573  0.92633693  0.72097024     0.36000
N759        N  0.24495563  0.11467486  0.75042362    -0.44200
N760        N  0.25653194  0.89442819  0.71587604    -0.44200
C761        C  0.35278278  0.79092652  0.80861093    -0.00600
C762        C  0.35509354  0.77057866  0.83963896    -0.12500
C763        C  0.35568122  0.73126217  0.83999685     0.01600
C764        C  0.35389462  0.71100628  0.80863043    -0.00700
C765        C  0.35270374  0.73137118  0.77757071    -0.12500
C766        C  0.35205148  0.77064420  0.77719057     0.01500
H767        H  0.35596779  0.78540178  0.86397525     0.14500
H768        H  0.35133628  0.71656590  0.75325026     0.14500
C769        C  0.34958171  0.78884637  0.74394014     0.36100
C770        C  0.35785197  0.71284676  0.87316449     0.36000
N771        N  0.34752082  0.80329422  0.71724759    -0.44200
N772        N  0.35955906  0.69820200  0.89979412    -0.44200
C773        C  0.39482056  0.99007260  0.64307677    -0.00600
C774        C  0.37005204  0.96463791  0.64065207    -0.12500
C775        C  0.36289602  0.94025888  0.66814571     0.01600
C776        C  0.38123427  0.94054245  0.69847974    -0.00700
C777        C  0.40828194  0.96277565  0.69856461    -0.12500
C778        C  0.41456890  0.98814094  0.67190413     0.01500
H779        H  0.35495465  0.96568244  0.61822418     0.14500
H780        H  0.42333499  0.96300635  0.72103954     0.14500
C781        C  0.44051040  0.01326693  0.67571702     0.36100
C782        C  0.33568088  0.91714257  0.66522304     0.36000
N783        N  0.46124545  0.03340809  0.67921158    -0.44200
N784        N  0.31388791  0.89854754  0.66274645    -0.44200
C785        C  0.35757535  0.01349343  0.88903212    -0.00600
C786        C  0.33540467  0.01620025  0.91477704    -0.12500
C787        C  0.33974960  0.04041303  0.94276590     0.01600
C788        C  0.36778516  0.06084142  0.94644432    -0.00700
C789        C  0.38849184  0.06078360  0.91876981    -0.12500
C790        C  0.38337001  0.03767868  0.89000926     0.01500
H791        H  0.31506483  0.99849455  0.91355642     0.14500
H792        H  0.40986579  0.07647726  0.92069595     0.14500
C793        C  0.40596868  0.03737742  0.86294291     0.36100
C794        C  0.31551497  0.04234205  0.96801108     0.36000
N795        N  0.42396479  0.03748618  0.84111385    -0.44200
N796        N  0.29608221  0.04391683  0.98819207    -0.44200
C797        C  0.47323851  0.49203860  0.99554570    -0.00600
C798        C  0.47336952  0.49595361  0.95954267    -0.12500
C799        C  0.50030612  0.50666900  0.94223220     0.01600
C800        C  0.02655361  0.51894464  0.96191783    -0.00700
C801        C  0.02583129  0.51486542  0.99784755    -0.12500
C802        C  0.99668928  0.50417596  0.51343035     0.01500
H803        H  0.45271676  0.48925150  0.94481606     0.14500
H804        H  0.04621731  0.52143501  0.01303451     0.14500
C805        C  0.99640187  0.50237906  0.55062277     0.36100
C806        C  0.49934424  0.51022885  0.90512882     0.36000
N807        N  0.99591610  0.50120014  0.58042482    -0.44200
N808        N  0.49870069  0.51285303  0.87538024    -0.44200
C809        C  0.44586955  0.58899761  0.84096996    -0.00600
C810        C  0.46761727  0.59516886  0.81518363    -0.12500
C811        C  0.49796895  0.60485656  0.82375137     0.01600
C812        C  0.50669003  0.60839855  0.85881702    -0.00700
C813        C  0.48442923  0.60356261  0.88445675    -0.12500
C814        C  0.45425685  0.59373965  0.87584567     0.01500
H815        H  0.46060110  0.59341328  0.78824436     0.14500
H816        H  0.49092889  0.60564292  0.91153557     0.14500
C817        C  0.43255073  0.58726274  0.90328216     0.36100
C818        C  0.01993333  0.61722068  0.79685971     0.36000
N819        N  0.41517223  0.58196332  0.92523691    -0.44200
N820        N  0.03729588  0.62292782  0.77496749    -0.44200
C821        C  0.19559214  0.58929471  0.86666758    -0.00600
C822        C  0.20332117  0.61982652  0.84510587    -0.12500
C823        C  0.23347369  0.62585518  0.83399501     0.01600
C824        C  0.25708163  0.60148524  0.84498620    -0.00700
C825        C  0.24958326  0.57130249  0.86694642    -0.12500
C826        C  0.21925436  0.56468866  0.87741883     0.01500
H827        H  0.18562731  0.63908619  0.83628201     0.14500
H828        H  0.26743202  0.55204076  0.87538652     0.14500
C829        C  0.21337502  0.53219671  0.89871114     0.36100
C830        C  0.23935427  0.65750061  0.81163383     0.36000
N831        N  0.20880932  0.50597658  0.91560012    -0.44200
N832        N  0.24400208  0.68278060  0.79360446    -0.44200
C833        C  0.12886980  0.56595186  0.51435098    -0.00600
C834        C  0.10618154  0.55876732  0.53907733    -0.12500
C835        C  0.11216364  0.53515610  0.56731948     0.01600
C836        C  0.14138778  0.51827530  0.57138338    -0.00700
C837        C  0.16498000  0.52824942  0.54869480    -0.12500
C838        C  0.15910393  0.55238751  0.52066041     0.01500
H839        H  0.08296402  0.56910217  0.53494395     0.14500
H840        H  0.18775699  0.51636462  0.55230972     0.14500
C841        C  0.18655109  0.55819451  0.99757127     0.36100
C842        C  0.08719052  0.52691657  0.59047643     0.36000
N843        N  0.20681574  0.56551731  0.97953879    -0.44200
N844        N  0.06684849  0.52087698  0.60876467    -0.44200
C845        C  0.11735747  0.44747576  0.76610075    -0.00600
C846        C  0.08925709  0.46716824  0.76775947    -0.12500
C847        C  0.08272301  0.49081681  0.79547366     0.01600
C848        C  0.10401929  0.49434600  0.82271247    -0.00700
C849        C  0.13021908  0.47141365  0.82335203    -0.12500
C850        C  0.13712795  0.44808991  0.79539847     0.01500
H851        H  0.07332720  0.46644366  0.74607568     0.14500
H852        H  0.14648510  0.47375960  0.84466936     0.14500
C853        C  0.16588943  0.42786890  0.79649755     0.36100
C854        C  0.05452809  0.51212308  0.79493752     0.36000
N855        N  0.18899119  0.41176460  0.79747785    -0.44200
N856        N  0.03177307  0.52891402  0.79459426    -0.44200
C857        C  0.25761955  0.90289497  0.85388008    -0.00600
C858        C  0.23773318  0.87277786  0.85919428    -0.12500
C859        C  0.20768739  0.87881976  0.87040574     0.01600
C860        C  0.19691793  0.91594215  0.87584597    -0.00700
C861        C  0.21728577  0.94601891  0.87122028    -0.12500
C862        C  0.24739616  0.93982546  0.86013549     0.01500
H863        H  0.24581369  0.84444457  0.85487315     0.14500
H864        H  0.20929377  0.97451800  0.87470734     0.14500
C865        C  0.26658190  0.97206388  0.85307326     0.36100
C866        C  0.18878484  0.84607954  0.87630121     0.36000
N867        N  0.28151111  0.99818635  0.84714465    -0.44200
N868        N  0.17399778  0.81951128  0.88082404    -0.44200
C869        C  0.44579858  0.91234777  0.84089789    -0.00600
C870        C  0.46544804  0.94323909  0.84499483    -0.12500
C871        C  0.49600669  0.93832161  0.85538075     0.01600
C872        C  0.50732387  0.90186985  0.86174299    -0.00700
C873        C  0.48813254  0.87088522  0.85704708    -0.12500
C874        C  0.45764158  0.87566937  0.84622653     0.01500
H875        H  0.45669128  0.97137868  0.84129592     0.14500
H876        H  0.49712470  0.84290912  0.86143120     0.14500
C877        C  0.43948952  0.84226812  0.84022730     0.36100
C878        C  0.01550709  0.97575801  0.85973601     0.36000
N879        N  0.42516563  0.81534921  0.83543740    -0.44200
N880        N  0.03036144  0.00222703  0.86462179    -0.44200
C881        C  0.10468654  0.79604870  0.90283587    -0.00600
C882        C  0.10733471  0.77653854  0.93434138    -0.12500
C883        C  0.10819808  0.73714840  0.93561848     0.01600
C884        C  0.10616432  0.71603251  0.90478578    -0.00700
C885        C  0.10527321  0.73563854  0.87327253    -0.12500
C886        C  0.10455822  0.77485937  0.87192828     0.01500
H887        H  0.10809604  0.79205771  0.95832231     0.14500
H888        H  0.10420952  0.72025360  0.84922240     0.14500
C889        C  0.10301280  0.79203135  0.83815297     0.36100
C890        C  0.11077268  0.71949585  0.96907468     0.36000
N891        N  0.10178781  0.80556034  0.81100203    -0.44200
N892        N  0.11292597  0.70541488  0.99592079    -0.44200
C893        C  0.10876492  0.01876269  0.82391613    -0.00600
C894        C  0.13192789  0.04637829  0.82618916    -0.12500
C895        C  0.13874718  0.06981349  0.79779871     0.01600
C896        C  0.12126984  0.06682083  0.76689689    -0.00700
C897        C  0.09592525  0.04183663  0.76661005    -0.12500
C898        C  0.09043672  0.01708581  0.79390072     0.01500
H899        H  0.14630353  0.04764449  0.84917455     0.14500
H900        H  0.08176222  0.03895755  0.74359221     0.14500
C901        C  0.06721476  0.98839150  0.78929105     0.36100
C902        C  0.16497431  0.09459494  0.80044797     0.36000
N903        N  0.04890558  0.96516687  0.78509736    -0.44200
N904        N  0.18608311  0.11435886  0.80268687    -0.44200
C905        C  0.13012274  0.94689101  0.51813352    -0.00600
C906        C  0.15721777  0.96898700  0.51908322    -0.12500
C907        C  0.16325123  0.99414319  0.54594248     0.01600
C908        C  0.14334188  0.99583822  0.57425277    -0.00700
C909        C  0.11793709  0.97128024  0.57535518    -0.12500
C910        C  0.11082802  0.94745350  0.54741156     0.01500
H911        H  0.17297990  0.96485853  0.99905949     0.14500
H912        H  0.10229568  0.97277839  0.59694305     0.14500
C913        C  0.08233731  0.92654767  0.54842562     0.36100
C914        C  0.18894788  0.01967340  0.54262110     0.36000
N915        N  0.05937787  0.90999663  0.54924628    -0.44200
N916        N  0.20936517  0.04029514  0.53942586    -0.44200
C917        C  0.02676208  0.99160234  0.96533511    -0.00600
C918        C  0.49628535  0.97807063  0.95349985    -0.12500
C919        C  0.47022861  0.99107278  0.97090610     0.01600
C920        C  0.47230267  0.01645237  0.49988240    -0.00700
C921        C  0.00606187  0.02918165  0.51257994    -0.12500
C922        C  0.03080049  0.01394368  0.99489051     0.01500
H923        H  0.49300832  0.95862805  0.93235908     0.14500
H924        H  0.01001203  0.04860940  0.53360524     0.14500
C925        C  0.06205505  0.02720874  0.50546228     0.36100
C926        C  0.44006495  0.98018493  0.95843142     0.36000
N927        N  0.08645898  0.03633312  0.51437582    -0.44200
N928        N  0.41593448  0.97146065  0.94830272    -0.44200
O929        O  0.65290022  0.95121599  0.39751881    -0.82300
C930        C  0.53795054  0.89728707  0.37215221     0.97100
O931        O  0.55953261  0.91150220  0.35496681    -0.71400
O932        O  0.60905744  0.95076410  0.34213021    -0.75000
Al933      Al  0.60122468  0.90401996  0.36511904     1.49000
C934        C  0.60400156  0.98435274  0.35015528     0.92300
O935        O  0.57752444  0.98297680  0.44453010    -0.81200
O936        O  0.59341701  0.91017291  0.47869234    -0.74800
Al937      Al  0.61391784  0.96423722  0.41972079     1.90100
O938        O  0.54501583  0.93562685  0.44119166    -0.73800
O939        O  0.59668012  0.85220225  0.43305625    -0.73700
O940        O  0.54332624  0.87977248  0.40018535    -0.79300
O941        O  0.59522616  0.85181187  0.37674492    -0.77600
O942        O  0.59583012  0.92184838  0.40724351    -1.13700
O943        O  0.64296163  0.89644237  0.37329967    -0.72900
C944        C  0.66199481  0.92067303  0.38379224     0.97800
C945        C  0.55059637  0.96911359  0.44853880     0.94200
Al946      Al  0.57187795  0.89622527  0.43604953     1.55600
O947        O  0.59955054  0.99275352  0.38113140    -0.77500
C948        C  0.59867639  0.83439603  0.40500994     0.98400
C949        C  0.61757916  0.92926889  0.48440316     0.93300
O950        O  0.63168420  0.94348195  0.45952462    -0.82800
O951        O  0.63437065  0.56289828  0.45230539    -0.82300
C952        C  0.53861250  0.61334884  0.36911355     0.97100
O953        O  0.54531160  0.62812512  0.39790850    -0.71400
O954        O  0.54566354  0.56803402  0.43516094    -0.75000
Al955      Al  0.57322443  0.60803707  0.43212093     1.49000
C956        C  0.55217882  0.53493772  0.44343853     0.92300
O957        O  0.59882621  0.51431144  0.37612115    -0.81200
O958        O  0.64344816  0.60958415  0.36695364    -0.74800
Al959      Al  0.61497659  0.54173595  0.41368604     1.90100
O960        O  0.60716940  0.55668885  0.33637735    -0.73800
O961        O  0.59750148  0.65564351  0.37459535    -0.73700
O962        O  0.55923052  0.59864998  0.35100988    -0.79300
O963        O  0.59875309  0.65138045  0.43098225    -0.77600
O964        O  0.59662672  0.58414010  0.40206827    -1.13700
O965        O  0.59468589  0.59120470  0.47367488    -0.72900
C966        C  0.61994565  0.57411016  0.47803832     0.97800
C967        C  0.60315352  0.52285265  0.34512933     0.94200
Al968      Al  0.60139903  0.60364964  0.36033488     1.55600
O969        O  0.57955406  0.52242078  0.44035602    -0.77500
C970        C  0.60056541  0.67112495  0.40391984     0.98400
C971        C  0.66231468  0.58440014  0.37543108     0.93300
O972        O  0.65302602  0.55408868  0.38950505    -0.82800
O973        O  0.88311881  0.94266578  0.26238914    -0.82300
C974        C  0.78798662  0.89595254  0.34425905     0.97100
O975        O  0.79371775  0.87919432  0.31605159    -0.71400
O976        O  0.79504471  0.93627176  0.27640672    -0.75000
Al977      Al  0.82241206  0.89764388  0.28106233     1.49000
C978        C  0.80100690  0.96901123  0.26706856     0.92300
O979        O  0.84797515  0.99267981  0.33693763    -0.81200
O980        O  0.89300957  0.89698935  0.34592771    -0.74800
Al981      Al  0.86374235  0.96480627  0.29962096     1.90100
O982        O  0.85834223  0.95067255  0.37655313    -0.73800
O983        O  0.84620108  0.85102680  0.33974664    -0.73700
O984        O  0.80942637  0.90970287  0.36230282    -0.79300
O985        O  0.84806456  0.85483308  0.28351253    -0.77600
O986        O  0.84569858  0.92245232  0.31126153    -1.13700
O987        O  0.84419835  0.91442463  0.23876535    -0.72900
C988        C  0.86913087  0.93287401  0.23568097     0.97800
C989        C  0.85386468  0.98444546  0.36784469     0.94200
Al990      Al  0.85119175  0.90347316  0.35308989     1.55600
O991        O  0.82780313  0.98320986  0.27203735    -0.77500
C992        C  0.85003134  0.83537151  0.31068456     0.98400
C993        C  0.91168275  0.92215253  0.33688180     0.93300
O994        O  0.90211184  0.95304455  0.32404993    -0.82800
O995        O  0.90335368  0.55366204  0.31462291    -0.82300
C996        C  0.78881150  0.61082821  0.33610786     0.97100
O997        O  0.80988716  0.59535860  0.35341286    -0.71400
O998        O  0.85743585  0.55357819  0.36677190    -0.75000
Al999      Al  0.85179553  0.60137503  0.34546373     1.49000
C1000       C  0.85323723  0.52034408  0.35692912     0.92300
O1001       O  0.83024683  0.52584662  0.26150355    -0.81200
O1002       O  0.84662277  0.59843801  0.23133009    -0.74800
Al1003     Al  0.86550119  0.54310857  0.28935472     1.90100
O1004       O  0.79710912  0.57228865  0.26594539    -0.73800
O1005       O  0.84951597  0.65534152  0.27851744    -0.73700
O1006       O  0.79495239  0.62772522  0.30802236    -0.79300
O1007       O  0.84770672  0.65405561  0.33482426    -0.77600
O1008       O  0.84729677  0.58505850  0.30254192    -1.13700
O1009       O  0.89384523  0.60755679  0.34054305    -0.72900
C1010       C  0.91226152  0.58250345  0.33118839     0.97800
C1011       C  0.80330056  0.53930972  0.25751823     0.94200
Al1012     Al  0.82424493  0.61165562  0.27326025     1.55600
O1013       O  0.84941511  0.51314344  0.32551887    -0.77500
C1014       C  0.85164923  0.67223968  0.30710543     0.98400
C1015       C  0.87117921  0.58004663  0.22657743     0.93300
O1016       O  0.88502733  0.56620798  0.25199487    -0.82800
O1017       O  0.84653721  0.45465615  0.06576379    -0.82300
C1018       C  0.96309614  0.39986740  0.08691338     0.97100
O1019       O  0.94230291  0.41521790  0.10437776    -0.71400
O1020       O  0.89339689  0.45602270  0.11888763    -0.75000
Al1021     Al  0.90002012  0.40846268  0.09628637     1.49000
C1022       C  0.89585552  0.48975625  0.10921054     0.92300
O1023       O  0.91884380  0.48725506  0.01377524    -0.81200
O1024       O  0.90289060  0.41589754  0.48074392    -0.74800
Al1025     Al  0.88403265  0.46760765  0.04123592     1.90100
O1026       O  0.95327237  0.44219652  0.01884776    -0.73800
O1027       O  0.90255346  0.35699714  0.02736054    -0.73700
O1028       O  0.95638050  0.38440021  0.05834372    -0.79300
O1029       O  0.90493635  0.35617741  0.08382974    -0.77600
O1030       O  0.90356369  0.42629248  0.05382470    -1.13700
O1031       O  0.85784317  0.40080329  0.09119799    -0.72900
C1032       C  0.83847740  0.42488864  0.08151176     0.95400
C1033       C  0.94629730  0.47508392  0.01050800     0.94200
Al1034     Al  0.92692104  0.40173078  0.02391932     1.55600
O1035       O  0.89945829  0.49747633  0.07788188    -0.77500
C1036       C  0.90122680  0.33887195  0.05553180     0.98400
C1037       C  0.87743223  0.43296862  0.47752929     0.93300
O1038       O  0.86355096  0.44214247  0.50410874    -0.82800
O1039       O  0.86672696  0.06420764  0.00999092    -0.82300
C1040       C  0.96127244  0.11364028  0.09297622     0.97100
O1041       O  0.95584520  0.12966192  0.06421889    -0.71400
O1042       O  0.95443033  0.07150522  0.02601650    -0.75000
Al1043     Al  0.92730453  0.11106507  0.02933866     1.49000
C1044       C  0.94863379  0.03812236  0.01853922     0.92300
O1045       O  0.90112904  0.01736066  0.08764244    -0.81200
O1046       O  0.85632779  0.11355437  0.09243273    -0.74800
Al1047     Al  0.88564236  0.04409887  0.04887644     1.90100
O1048       O  0.89088018  0.06061514  0.12547321    -0.73800
O1049       O  0.90362476  0.15899743  0.08638762    -0.73700
O1050       O  0.93977870  0.10065276  0.11104129    -0.79300
O1051       O  0.90248656  0.15505680  0.03019027    -0.77600
O1052       O  0.90363669  0.08704161  0.05951096    -1.13700
O1053       O  0.90633261  0.09410840  0.48854186    -0.72900
C1054       C  0.88133744  0.07590579  0.48501600     0.97800
C1055       C  0.89575913  0.02662708  0.11823230     0.94200
Al1056     Al  0.89814891  0.10700041  0.10071300     1.55600
O1057       O  0.92156905  0.02465331  0.02286751    -0.77500
C1058       C  0.90085964  0.17477857  0.05709015     0.98400
C1059       C  0.83762930  0.08790557  0.08441378     0.93300
O1060       O  0.84709583  0.05684833  0.07211814    -0.82800
O1061       O  0.61604381  0.44095259  0.20417576    -0.82300
C1062       C  0.71377918  0.39614362  0.12325932     0.97100
O1063       O  0.70697888  0.38000869  0.15139635    -0.71400
O1064       O  0.70402074  0.43865860  0.18928248    -0.75000
Al1065     Al  0.67781952  0.39801827  0.18488804     1.49000
C1066       C  0.69701383  0.47174509  0.19638815     0.92300
O1067       O  0.64957207  0.49267002  0.12886401    -0.81200
O1068       O  0.60817683  0.39626458  0.11729196    -0.74800
Al1069     Al  0.63464250  0.46358742  0.16601734     1.90100
O1070       O  0.64394495  0.45051564  0.08860525    -0.73800
O1071       O  0.65497405  0.35161050  0.12585877    -0.73700
O1072       O  0.69284093  0.41011011  0.10448950    -0.79300
O1073       O  0.65322901  0.35374059  0.18226691    -0.77600
O1074       O  0.65416335  0.42209504  0.15438666    -1.13700
O1075       O  0.65595763  0.41314165  0.22616969    -0.72900
C1076       C  0.63075447  0.43013601  0.23021934     0.97800
C1077       C  0.64645944  0.48432917  0.09763762     0.94200
Al1078     Al  0.65037722  0.40356234  0.11225631     1.55600
O1079       O  0.66955877  0.48376532  0.19275403    -0.77500
C1080       C  0.65102149  0.33518030  0.15461136     0.98400
C1081       C  0.58864850  0.42002959  0.12686861     0.93300
O1082       O  0.59701522  0.45016876  0.14168570    -0.82800
O1083       O  0.59634678  0.05481202  0.14239230    -0.82300
C1084       C  0.71195509  0.10983846  0.12606232     0.97100
O1085       O  0.69127329  0.09499643  0.10765404    -0.71400
O1086       O  0.64276491  0.05445050  0.09168988    -0.75000
Al1087     Al  0.64922441  0.10209321  0.11414042     1.49000
C1088       C  0.64657795  0.02088006  0.10124445     0.92300
O1089       O  0.66846011  0.02517245  0.19817457    -0.81200
O1090       O  0.65124048  0.09631907  0.22885563    -0.74800
Al1091     Al  0.63365344  0.04306799  0.16877212     1.90100
O1092       O  0.70138832  0.07217200  0.19526462    -0.73800
O1093       O  0.64967132  0.15431250  0.18180582    -0.73700
O1094       O  0.70521986  0.12743679  0.15352260    -0.79300
O1095       O  0.65428744  0.15456143  0.12573081    -0.77600
O1096       O  0.65258143  0.08486078  0.15684264    -1.13700
O1097       O  0.60714192  0.10956549  0.11860286    -0.72900
C1098       C  0.58777936  0.08529820  0.12790831     0.97800
C1099       C  0.69497913  0.03950310  0.20452130     0.94200
Al1100     Al  0.67473606  0.11092772  0.18739859     1.55600
O1101       O  0.65022799  0.01333128  0.13273831    -0.77500
C1102       C  0.64930242  0.17206739  0.15351864     0.98400
C1103       C  0.62655742  0.07744854  0.23173318     0.93300
O1104       O  0.61328046  0.06646448  0.20491557    -0.82800
C1105       C  0.64532952  0.21374898  0.15312118    -0.00600
C1106       C  0.64257571  0.23303323  0.18455852    -0.12500
C1107       C  0.64259774  0.27241318  0.18583602     0.01600
C1108       C  0.64600166  0.29364616  0.15514428    -0.00700
C1109       C  0.64651894  0.27432660  0.12361171    -0.12500
C1110       C  0.64600317  0.23512868  0.12224774     0.01500
H1111       H  0.64108150  0.21734475  0.20849250     0.14500
H1112       H  0.64813595  0.28986303  0.09960023     0.14500
C1113       C  0.64659712  0.21807052  0.08854323     0.36100
C1114       C  0.63919956  0.28992439  0.21907828     0.36000
N1115       N  0.64698247  0.20452831  0.06148559    -0.44200
N1116       N  0.63625169  0.30388579  0.24572622    -0.44200
C1117       C  0.49318891  0.10381147  0.10004576    -0.00600
C1118       C  0.51250192  0.13455469  0.10557538    -0.12500
C1119       C  0.54311947  0.12929863  0.11593784     0.01600
C1120       C  0.55491410  0.09243413  0.12021278    -0.00700
C1121       C  0.53525521  0.06177028  0.11491181    -0.12500
C1122       C  0.50465203  0.06714403  0.10478409     0.01500
H1123       H  0.50351234  0.16269921  0.10220777     0.14500
H1124       H  0.54405506  0.03345926  0.11756384     0.14500
C1125       C  0.98446292  0.03819750  0.10613245     0.36100
C1126       C  0.56139471  0.16239945  0.12274225     0.36000
N1127       N  0.96936000  0.01174259  0.10229137    -0.44200
N1128       N  0.57567918  0.18920645  0.12814905    -0.44200
C1129       C  0.74407135  0.10450117  0.11570734    -0.00600
C1130       C  0.76218880  0.13551199  0.10721541    -0.12500
C1131       C  0.79213997  0.13066612  0.09494989     0.01600
C1132       C  0.80467186  0.09406364  0.09204632    -0.00700
C1133       C  0.78611165  0.06308393  0.10000886    -0.12500
C1134       C  0.75603420  0.06801049  0.11168733     0.01500
H1135       H  0.75263686  0.16346698  0.10932759     0.14500
H1136       H  0.79539183  0.03497561  0.09815282     0.14500
C1137       C  0.73816371  0.03511892  0.12034528     0.36100
C1138       C  0.80896784  0.16376529  0.08449325     0.36000
N1139       N  0.72389644  0.00867663  0.12705987    -0.44200
N1140       N  0.82230892  0.19032040  0.07598081    -0.44200
C1141       C  0.74627588  0.40048670  0.11279993    -0.00600
C1142       C  0.75298970  0.40399837  0.07751152    -0.12500
C1143       C  0.78296929  0.41183132  0.06651728     0.01600
C1144       C  0.80634960  0.41837293  0.09109621    -0.00700
C1145       C  0.79995574  0.41415863  0.12618774    -0.12500
C1146       C  0.77043069  0.40473677  0.13726993     0.01500
H1147       H  0.73488410  0.39980767  0.05843095     0.14500
H1148       H  0.81833813  0.41786722  0.14506145     0.14500
C1149       C  0.76596321  0.40026894  0.17390357     0.36100
C1150       C  0.78972245  0.40935912  0.03026151     0.36000
N1151       N  0.76294562  0.39650184  0.20333670    -0.44200
N1152       N  0.79502284  0.40607460  0.00125201    -0.44200
C1153       C  0.55583525  0.41218886  0.11916307    -0.00600
C1154       C  0.54896615  0.38700359  0.09235975    -0.12500
C1155       C  0.51864005  0.37918024  0.08259639     0.01600
C1156       C  0.49412843  0.39668254  0.09995941    -0.00700
C1157       C  0.50096824  0.42020538  0.12810438    -0.12500
C1158       C  0.53140102  0.42831504  0.13762444     0.01500
H1159       H  0.56745667  0.37391099  0.07818581     0.14500
H1160       H  0.98410874  0.44028069  0.14052020     0.14500
C1161       C  0.53655556  0.45339521  0.16622234     0.36100
C1162       C  0.51376856  0.35349742  0.05434896     0.36000
N1163       N  0.54029225  0.47372760  0.18905283    -0.44200
N1164       N  0.50996839  0.33297639  0.03166033    -0.44200
C1165       C  0.89755418  0.29694383  0.05561730    -0.00600
C1166       C  0.90052232  0.27698572  0.02456986    -0.12500
C1167       C  0.90059303  0.23749620  0.02393151     0.01600
C1168       C  0.89758081  0.21665875  0.05498991    -0.00700
C1169       C  0.89326483  0.23667187  0.08571661    -0.12500
C1170       C  0.89318516  0.27598759  0.08638558     0.01500
H1171       H  0.90378153  0.29226000  0.00062265     0.14500
H1172       H  0.89044221  0.22150636  0.10980080     0.14500
C1173       C  0.88887323  0.29365642  0.11942128     0.36100
C1174       C  0.90938331  0.21821900  0.49100925     0.36000
N1175       N  0.88548814  0.30765686  0.14597875    -0.44200
N1176       N  0.91562896  0.20354177  0.46545938    -0.44200
C1177       C  0.86569027  0.44763909  0.44365180    -0.00600
C1178       C  0.88273731  0.44130961  0.41351604    -0.12500
C1179       C  0.87734801  0.46262735  0.38344890     0.01600
C1180       C  0.85416573  0.49027810  0.38305180    -0.00700
C1181       C  0.83547815  0.49440461  0.41174640    -0.12500
C1182       C  0.84100136  0.47403705  0.44191575     0.01500
H1183       H  0.90185645  0.42182981  0.41418148     0.14500
H1184       H  0.81788061  0.51599322  0.41145496     0.14500
C1185       C  0.82290082  0.48495848  0.47130085     0.36100
C1186       C  0.89795343  0.45849086  0.35471528     0.36000
N1187       N  0.80527003  0.48869867  0.99094483    -0.44200
N1188       N  0.91453786  0.45542035  0.33170889    -0.44200
C1189       C  0.89200693  0.52030601  0.13456821    -0.00600
C1190       C  0.91558815  0.52786599  0.15831310    -0.12500
C1191       C  0.91070464  0.55210661  0.18614814     0.01600
C1192       C  0.88122802  0.56822854  0.19146473    -0.00700
C1193       C  0.85865501  0.56344739  0.16559678    -0.12500
C1194       C  0.86385708  0.53983098  0.13729521     0.01500
H1195       H  0.93758652  0.51382711  0.15573698     0.14500
H1196       H  0.83599023  0.57556620  0.16887183     0.14500
C1197       C  0.83912431  0.53397181  0.11273800     0.36100
C1198       C  0.93625666  0.55878135  0.20936649     0.36000
N1199       N  0.81925715  0.52947708  0.09307159    -0.44200
N1200       N  0.95721465  0.56385726  0.22739124    -0.44200
C1201       C  0.72192357  0.49443538  0.21128775    -0.00600
C1202       C  0.72598897  0.49287647  0.24713281    -0.12500
C1203       C  0.75375454  0.50427453  0.26246862     0.01600
C1204       C  0.77789596  0.51795039  0.24185113    -0.00700
C1205       C  0.77381486  0.51978601  0.20596393    -0.12500
C1206       C  0.74628518  0.50743797  0.19052905     0.01500
H1207       H  0.70794997  0.48101071  0.26303428     0.14500
H1208       H  0.79197172  0.53140360  0.19006298     0.14500
C1209       C  0.74363836  0.50764328  0.15337265     0.36100
C1210       C  0.75746764  0.50041898  0.29931288     0.36000
N1211       N  0.74149997  0.50769824  0.12360614    -0.44200
N1212       N  0.76060135  0.49655010  0.32875841    -0.44200
C1213       C  0.71990727  0.01980668  0.22335971    -0.00600
C1214       C  0.72947108  0.98476016  0.21202832    -0.12500
C1215       C  0.75702849  0.96919970  0.22437563     0.01600
C1216       C  0.77545142  0.98854454  0.24913342    -0.00700
C1217       C  0.76571013  0.02342582  0.26079124    -0.12500
C1218       C  0.73825263  0.03914121  0.24820242     0.01500
H1219       H  0.71612879  0.97025276  0.19239178     0.14500
H1220       H  0.77903466  0.03787459  0.28048048     0.14500
C1221       C  0.72939551  0.07526437  0.26145222     0.36100
C1222       C  0.76608822  0.93343768  0.21052925     0.36000
N1223       N  0.72265485  0.10435210  0.27202130    -0.44200
N1224       N  0.77292755  0.90468223  0.19931293    -0.44200
C1225       C  0.85485966  0.79384695  0.30868519    -0.00600
C1226       C  0.85849963  0.77327938  0.33945343    -0.12500
C1227       C  0.85970428  0.73396986  0.33949602     0.01600
C1228       C  0.85620749  0.71386980  0.30819089    -0.00700
C1229       C  0.85467561  0.73446712  0.27725667    -0.12500
C1230       C  0.85432772  0.77381902  0.27713300     0.01500
H1231       H  0.86008548  0.78793140  0.36384759     0.14500
H1232       H  0.85282175  0.71980800  0.25288962     0.14500
C1233       C  0.85271439  0.79243953  0.24403996     0.36100
C1234       C  0.86469150  0.71539467  0.37223357     0.36000
N1235       N  0.85158249  0.80724495  0.21745280    -0.44200
N1236       N  0.86891985  0.70068288  0.39849891    -0.44200
C1237       C  0.89365683  0.99766276  0.14574604    -0.00600
C1238       C  0.87352165  0.96686668  0.14175559    -0.12500
C1239       C  0.86681402  0.94278526  0.16973796     0.01600
C1240       C  0.88046405  0.94936179  0.20237640    -0.00700
C1241       C  0.90309475  0.97792110  0.20480403    -0.12500
C1242       C  0.90937402  0.00207383  0.17727235     0.01500
H1243       H  0.86187817  0.96267626  0.11720955     0.14500
H1244       H  0.91486537  0.98321786  0.22908346     0.14500
C1245       C  0.93176615  0.03166407  0.18226849     0.36100
C1246       C  0.84620600  0.91160733  0.16414429     0.36000
N1247       N  0.94977340  0.05526421  0.18633128    -0.44200
N1248       N  0.83013579  0.88619666  0.15930274    -0.44200
C1249       C  0.85777729  0.01448268  0.39374593    -0.00600
C1250       C  0.83615176  0.01801596  0.41995531    -0.12500
C1251       C  0.84151677  0.04212806  0.44784339     0.01600
C1252       C  0.86996282  0.06193501  0.45085762    -0.00700
C1253       C  0.89040722  0.06060982  0.42299767    -0.12500
C1254       C  0.88432218  0.03752096  0.39442287     0.01500
H1255       H  0.81533609  0.00112624  0.41908789     0.14500
H1256       H  0.91212750  0.07563620  0.42445911     0.14500
C1257       C  0.90648013  0.03658279  0.36694570     0.36100
C1258       C  0.81776249  0.04460016  0.47360804     0.36000
N1259       N  0.92416434  0.03652238  0.34480841    -0.44200
N1260       N  0.79877281  0.04653320  0.49428145    -0.44200
C1261       C  0.97003473  0.49542595  0.49390446    -0.00600
C1262       C  0.97132149  0.49741397  0.45781880    -0.12500
C1263       C  0.99859108  0.50819052  0.44123217     0.01600
C1264       C  0.52706568  0.51301323  0.45937591    -0.00700
C1265       C  0.52654059  0.51018511  0.49543961    -0.12500
C1266       C  0.50077703  0.49880922  0.01422073     0.01500
H1267       H  0.95143195  0.48893384  0.44255893     0.14500
H1268       H  0.54664953  0.51858966  0.51031168     0.14500
C1269       C  0.50160577  0.49582498  0.05133737     0.36100
C1270       C  0.99906308  0.50923305  0.40401677     0.36000
N1271       N  0.50215483  0.49390664  0.08111685    -0.44200
N1272       N  0.99957343  0.50978286  0.37419173    -0.44200
C1273       C  0.94449102  0.58753546  0.34085878    -0.00600
C1274       C  0.96598242  0.59426263  0.31501969    -0.12500
C1275       C  0.99614967  0.60468467  0.32336612     0.01600
C1276       C  0.00496026  0.60851422  0.35836624    -0.00700
C1277       C  0.98308759  0.60224727  0.38419350    -0.12500
C1278       C  0.95307096  0.59157897  0.37575496     0.01500
H1279       H  0.95873617  0.59277425  0.28803821     0.14500
H1280       H  0.98975224  0.60424006  0.41125683     0.14500
C1281       C  0.93167104  0.58396930  0.40327642     0.36100
C1282       C  0.51790424  0.60774958  0.29563635     0.36000
N1283       N  0.91461658  0.57772467  0.42535371    -0.44200
N1284       N  0.53443297  0.61188990  0.27267435    -0.44200
C1285       C  0.69529063  0.59121756  0.36739709    -0.00600
C1286       C  0.70302496  0.62428844  0.34918342    -0.12500
C1287       C  0.73328760  0.63197663  0.33936501     0.01600
C1288       C  0.75681247  0.60662523  0.34819800    -0.00700
C1289       C  0.74945320  0.57445885  0.36762284    -0.12500
C1290       C  0.71908727  0.56618598  0.37671137     0.01500
H1291       H  0.68530783  0.64427820  0.34199632     0.14500
H1292       H  0.76742970  0.55475282  0.37471185     0.14500
C1293       C  0.71328312  0.53137287  0.39466250     0.36100
C1294       C  0.73953245  0.66639779  0.32093555     0.36000
N1295       N  0.70874045  0.50331408  0.40883737    -0.44200
N1296       N  0.74453315  0.69401824  0.30623698    -0.44200
C1297       C  0.63224162  0.56113864  0.01360155    -0.00600
C1298       C  0.61058540  0.55874493  0.04027767    -0.12500
C1299       C  0.61588129  0.53571349  0.06914364     0.01600
C1300       C  0.64313424  0.51433003  0.07155048    -0.00700
C1301       C  0.66599464  0.51931519  0.04679477    -0.12500
C1302       C  0.66112785  0.54310087  0.01839841     0.01500
H1303       H  0.58842476  0.57241321  0.03738674     0.14500
H1304       H  0.68733503  0.50371233  0.04912006     0.14500
C1305       C  0.68517424  0.55370503  0.49523353     0.36100
C1306       C  0.59193171  0.53215505  0.09457490     0.36000
N1307       N  0.70528536  0.56003558  0.47669011    -0.44200
N1308       N  0.57274197  0.52939211  0.11495995    -0.44200
C1309       C  0.62021595  0.44353383  0.26459225    -0.00600
C1310       C  0.59183199  0.46265240  0.26583181    -0.12500
C1311       C  0.58508120  0.48736984  0.29263798     0.01600
C1312       C  0.60654253  0.49276038  0.31943763    -0.00700
C1313       C  0.63317585  0.47050006  0.32062142    -0.12500
C1314       C  0.64014556  0.44586783  0.29360922     0.01500
H1315       H  0.57561545  0.46029247  0.24459536     0.14500
H1316       H  0.64939571  0.47385419  0.34184072     0.14500
C1317       C  0.66857480  0.42506533  0.29569336     0.36100
C1318       C  0.55616339  0.50715472  0.29183189     0.36000
N1319       N  0.69132482  0.40830418  0.29747587    -0.44200
N1320       N  0.53269832  0.52241795  0.29110311    -0.44200
C1321       C  0.75616364  0.90197850  0.35561528    -0.00600
C1322       C  0.73676297  0.87133676  0.36115378    -0.12500
C1323       C  0.70664594  0.87666417  0.37273720     0.01600
C1324       C  0.69509986  0.91350158  0.37756160    -0.00700
C1325       C  0.71500540  0.94402823  0.37295458    -0.12500
C1326       C  0.74533139  0.93857519  0.36225387     0.01500
H1327       H  0.74538071  0.84319257  0.35713716     0.14500
H1328       H  0.70658212  0.97233458  0.37649511     0.14500
C1329       C  0.76436070  0.97127929  0.35667130     0.36100
C1330       C  0.68873167  0.84364473  0.38072844     0.36000
N1331       N  0.77928244  0.99775471  0.35223078    -0.44200
N1332       N  0.67482393  0.81692975  0.38744633    -0.44200
C1333       C  0.94489995  0.91552376  0.34311574    -0.00600
C1334       C  0.96473968  0.94641330  0.34615402    -0.12500
C1335       C  0.99558720  0.94162065  0.35557146     0.01600
C1336       C  0.00706741  0.90526175  0.36193651    -0.00700
C1337       C  0.98771781  0.87426787  0.35819850    -0.12500
C1338       C  0.95695131  0.87892554  0.34835060     0.01500
H1339       H  0.95599853  0.97444216  0.34227384     0.14500
H1340       H  0.99678445  0.84634481  0.36264427     0.14500
C1341       C  0.93882041  0.84539315  0.34309230     0.36100
C1342       C  0.51324588  0.97239410  0.36043030     0.36000
N1343       N  0.92463997  0.81826807  0.33884195    -0.44200
N1344       N  0.52791146  0.99898004  0.36548276    -0.44200
C1345       C  0.60290658  0.79277023  0.40506090    -0.00600
C1346       C  0.59882522  0.77267828  0.43596074    -0.12500
C1347       C  0.59906243  0.73331279  0.43671018     0.01600
C1348       C  0.60394263  0.71281339  0.40598681    -0.00700
C1349       C  0.60958963  0.73297717  0.37546717    -0.12500
C1350       C  0.60897522  0.77224587  0.37461417     0.01500
H1351       H  0.59416606  0.78771595  0.45958847     0.14500
H1352       H  0.61375332  0.71797279  0.35169624     0.14500
C1353       C  0.61440017  0.79030950  0.34180446     0.36100
C1354       C  0.59255513  0.71510325  0.46916766     0.36000
N1355       N  0.61874254  0.80463042  0.31545414    -0.44200
N1356       N  0.58719465  0.70059967  0.49518807    -0.44200
C1357       C  0.60424453  0.01355581  0.32269729    -0.00600
C1358       C  0.62274638  0.04584551  0.32629841    -0.12500
C1359       C  0.62839741  0.06978037  0.29790163     0.01600
C1360       C  0.61521826  0.06161601  0.26529645    -0.00700
C1361       C  0.59384850  0.03170089  0.26330787    -0.12500
C1362       C  0.58873361  0.00760040  0.29117849     0.01500
H1363       H  0.63419920  0.05121578  0.35074910     0.14500
H1364       H  0.58250878  0.02513293  0.23904605     0.14500
C1365       C  0.56812141  0.97612076  0.28629604     0.36100
C1366       C  0.64775918  0.10222355  0.30292955     0.36000
N1367       N  0.55164415  0.95092817  0.28221434    -0.44200
N1368       N  0.66289340  0.12857965  0.30722068    -0.44200
C1369       C  0.63172259  0.94326084  0.01775851    -0.00600
C1370       C  0.65803490  0.96673775  0.01852327    -0.12500
C1371       C  0.66422797  0.99068427  0.04628139     0.01600
C1372       C  0.64486987  0.99053371  0.07513092    -0.00700
C1373       C  0.62077477  0.96406558  0.07651667    -0.12500
C1374       C  0.61394372  0.94067072  0.04813424     0.01500
H1375       H  0.67407048  0.95390995  0.50241121     0.14500
H1376       H  0.60590721  0.96350823  0.09882537     0.14500
C1377       C  0.58764902  0.91598107  0.05033005     0.36100
C1378       C  0.68984624  0.01645535  0.04377974     0.36000
N1379       N  0.56663189  0.89606188  0.05224119    -0.44200
N1380       N  0.71036344  0.03708132  0.04150296    -0.44200
C1381       C  0.52456556  0.98994798  0.46384783    -0.00600
C1382       C  0.99656220  0.98050230  0.45781234    -0.12500
C1383       C  0.97105389  0.99378207  0.47601153     0.01600
C1384       C  0.97454311  0.01723159  0.00259109    -0.00700
C1385       C  0.50415087  0.02691385  0.00836546    -0.12500
C1386       C  0.52848824  0.01375068  0.49235343     0.01500
H1387       H  0.99260069  0.96125436  0.43663496     0.14500
H1388       H  0.50750194  0.04653982  0.02932571     0.14500
C1389       C  0.56031881  0.02519579  0.00324312     0.36100
C1390       C  0.94055666  0.98301119  0.46453105     0.36000
N1391       N  0.58445114  0.03419603  0.01315495    -0.44200
N1392       N  0.91612535  0.97439250  0.45528755    -0.44200
O1393       O  0.65421603  0.95028481  0.89522206    -0.82300
C1394       C  0.53914973  0.89619166  0.87302063     0.97100
O1395       O  0.56029286  0.91046199  0.85519367    -0.71400
O1396       O  0.60954468  0.94975753  0.84055730    -0.75000
Al1397     Al  0.60205184  0.90309256  0.86417105     1.49000
C1398       C  0.60499013  0.98343832  0.84868027     0.92300
O1399       O  0.57949893  0.98250527  0.94347661    -0.81200
O1400       O  0.59656555  0.91038984  0.97835824    -0.74800
Al1401     Al  0.61565957  0.96357599  0.91805743     1.90100
O1402       O  0.54740020  0.93466601  0.94157115    -0.73800
O1403       O  0.59923933  0.85153272  0.93260099    -0.73700
O1404       O  0.54511654  0.87873619  0.90096835    -0.79300
O1405       O  0.59621662  0.85111909  0.87633973    -0.77600
O1406       O  0.59747147  0.92113327  0.90634430    -1.13700
O1407       O  0.64385054  0.89546146  0.87137122    -0.72900
C1408       C  0.66307212  0.91953726  0.88166883     0.97800
C1409       C  0.55272335  0.96837517  0.94815558     0.94200
Al1410     Al  0.57431730  0.89556436  0.93607668     1.55600
O1411       O  0.60071545  0.99183361  0.87967890    -0.77500
C1412       C  0.60023265  0.83364030  0.90447870     0.98400
C1413       C  0.62066751  0.92998990  0.98298028     0.93300
O1414       O  0.63424962  0.94298596  0.95726409    -0.82800
O1415       O  0.63552532  0.56183985  0.95295554    -0.82300
C1416       C  0.53908670  0.61162251  0.86990887     0.97100
O1417       O  0.54570029  0.62648302  0.89875176    -0.71400
O1418       O  0.54707952  0.56763349  0.93689376    -0.75000
Al1419     Al  0.57438704  0.60732473  0.93294782     1.49000
C1420       C  0.55335165  0.53450477  0.94503704     0.92300
O1421       O  0.59977193  0.51269267  0.87702184    -0.81200
O1422       O  0.64414815  0.60814302  0.86721511    -0.74800
Al1423     Al  0.61593929  0.54054222  0.91452032     1.90100
O1424       O  0.60789701  0.55503233  0.83722413    -0.73800
O1425       O  0.59798690  0.65419011  0.87470672    -0.73700
O1426       O  0.55977067  0.59686056  0.85192996    -0.79300
O1427       O  0.59972158  0.65079385  0.93104767    -0.77600
O1428       O  0.59752938  0.58296421  0.90285146    -1.13700
O1429       O  0.59643091  0.59119319  0.97446825    -0.72900
C1430       C  0.62154275  0.57372662  0.97874945     0.97800
C1431       C  0.60421244  0.52115706  0.84599433     0.94200
Al1432     Al  0.60200850  0.60209032  0.86096060     1.55600
O1433       O  0.58055378  0.52152188  0.94157869    -0.77500
C1434       C  0.60137232  0.67013234  0.90376488     0.98400
C1435       C  0.66301811  0.58265389  0.87494983     0.93300
O1436       O  0.65389997  0.55268897  0.88982252    -0.82800
O1437       O  0.88322918  0.94381412  0.76201056    -0.82300
C1438       C  0.78985788  0.89472619  0.84534746     0.97100
O1439       O  0.79554699  0.87809224  0.81711291    -0.71400
O1440       O  0.79547314  0.93590536  0.77909039    -0.75000
Al1441     Al  0.82321104  0.89776539  0.78182702     1.49000
C1442       C  0.80072696  0.96842150  0.76885777     0.92300
O1443       O  0.84809226  0.99227973  0.83709931    -0.81200
O1444       O  0.89488882  0.89761693  0.84481148    -0.74800
Al1445     Al  0.86401330  0.96524600  0.79962356     1.90100
O1446       O  0.85996927  0.95060306  0.87655566    -0.73800
O1447       O  0.84838849  0.85084968  0.83927926    -0.73700
O1448       O  0.81134516  0.90870811  0.86320276    -0.79300
O1449       O  0.84929801  0.85559511  0.78296467    -0.77600
O1450       O  0.84679125  0.92247449  0.81151458    -1.13700
O1451       O  0.84392769  0.91545950  0.73926936    -0.72900
C1452       C  0.86884277  0.93382107  0.73563191     0.97800
C1453       C  0.85443808  0.98419028  0.86789027     0.94200
Al1454     Al  0.85312366  0.90328345  0.85305932     1.55600
O1455       O  0.82753772  0.98300627  0.77256769    -0.77500
C1456       C  0.85103994  0.83563307  0.80982280     0.98400
C1457       C  0.91300481  0.92319793  0.83527801     0.93300
O1458       O  0.90279506  0.95420907  0.82337316    -0.82800
O1459       O  0.90602182  0.55791168  0.81439177    -0.82300
C1460       C  0.78914025  0.60959400  0.83282949     0.97100
O1461       O  0.81021696  0.59512228  0.85095198    -0.71400
O1462       O  0.85908474  0.55577004  0.86629644    -0.75000
Al1463     Al  0.85226347  0.60308066  0.84417315     1.49000
C1464       C  0.85633847  0.52222059  0.85672525     0.92300
O1465       O  0.83357662  0.52604799  0.76092937    -0.81200
O1466       O  0.84879575  0.59842496  0.72966024    -0.74800
Al1467     Al  0.86851292  0.54500369  0.78897840     1.90100
O1468       O  0.79985264  0.57203998  0.76369686    -0.73800
O1469       O  0.85026293  0.65577091  0.77647230    -0.73700
O1470       O  0.79571609  0.62720192  0.80522440    -0.79300
O1471       O  0.84686154  0.65542158  0.83279461    -0.77600
O1472       O  0.84898915  0.58617102  0.80135570    -1.13700
O1473       O  0.89432368  0.61126103  0.84009837    -0.72900
C1474       C  0.91382678  0.58740881  0.83076186     0.97800
C1475       C  0.80666516  0.53929795  0.75528150     0.94200
Al1476     Al  0.82589452  0.61173151  0.77121269     1.55600
O1477       O  0.85325619  0.51456547  0.82530769    -0.77500
C1478       C  0.85133594  0.67306867  0.80486336     0.98400
C1479       C  0.87355781  0.58026676  0.72575571     0.93300
O1480       O  0.88762619  0.56865968  0.75186812    -0.82800
O1481       O  0.84579221  0.45298525  0.56571516    -0.82300
C1482       C  0.96233574  0.39758630  0.58494907     0.97100
O1483       O  0.94152221  0.41211736  0.60291925    -0.71400
O1484       O  0.89343146  0.45328533  0.61837794    -0.75000
Al1485     Al  0.89924328  0.40593495  0.59524436     1.49000
C1486       C  0.89596802  0.48709322  0.60892766     0.92300
O1487       O  0.91771401  0.48540672  0.51318628    -0.81200
O1488       O  0.90433089  0.41674273  0.98176611    -0.74800
Al1489     Al  0.88311199  0.46573767  0.54095896     1.90100
O1490       O  0.95221883  0.44035469  0.51780185    -0.73800
O1491       O  0.90081213  0.35598402  0.52548717    -0.73700
O1492       O  0.95537564  0.38189846  0.55653198    -0.79300
O1493       O  0.90334915  0.35386966  0.58201277    -0.77600
O1494       O  0.90263935  0.42432532  0.55299300    -1.13700
O1495       O  0.85702177  0.39884934  0.59054495    -0.72900
C1496       C  0.83768780  0.42302775  0.58105669     0.95400
C1497       C  0.94513406  0.47323630  0.50957997     0.94200
Al1498     Al  0.92567827  0.40008546  0.52253641     1.55600
O1499       O  0.89896147  0.49517436  0.57757887    -0.77500
C1500       C  0.89873509  0.33755890  0.55337187     0.98400
C1501       C  0.87907313  0.43411915  0.97784778     0.93300
O1502       O  0.86488898  0.44398226  0.00405293    -0.82800
O1503       O  0.86762514  0.06472295  0.51129272    -0.82300
C1504       C  0.96250473  0.11569309  0.59331765     0.97100
O1505       O  0.95658037  0.13163371  0.56463516    -0.71400
O1506       O  0.95561776  0.07263334  0.52752740    -0.75000
Al1507     Al  0.92815041  0.11176591  0.53011012     1.49000
C1508       C  0.94981355  0.03928775  0.51991068     0.92300
O1509       O  0.90288739  0.01877639  0.58891376    -0.81200
O1510       O  0.85741309  0.11420259  0.59395640    -0.74800
Al1511     Al  0.88694482  0.04495034  0.55026250     1.90100
O1512       O  0.89281157  0.06202718  0.62688532    -0.73800
O1513       O  0.90391826  0.16029939  0.58654037    -0.73700
O1514       O  0.94124241  0.10272044  0.61172097    -0.79300
O1515       O  0.90259058  0.15481481  0.53036663    -0.77600
O1516       O  0.90474965  0.08800466  0.56062055    -1.13700
O1517       O  0.90517421  0.09459277  0.98765842    -0.72900
C1518       C  0.88021893  0.07636400  0.98395128     0.97800
C1519       C  0.89744781  0.02803321  0.61947088     0.94200
Al1520     Al  0.89939356  0.10836373  0.60172518     1.55600
O1521       O  0.92276589  0.02577599  0.52416361    -0.77500
C1522       C  0.90030040  0.17501421  0.55686052     0.98400
C1523       C  0.83898448  0.08819807  0.58616570     0.93300
O1524       O  0.84861786  0.05730460  0.57379323    -0.82800
O1525       O  0.61868037  0.44475738  0.70372520    -0.82300
C1526       C  0.71281236  0.39368859  0.62133258     0.97100
O1527       O  0.70585564  0.37713381  0.64933648    -0.71400
O1528       O  0.70462663  0.43320727  0.69001966    -0.75000
Al1529     Al  0.67699019  0.39484756  0.68353059     1.49000
C1530       C  0.70012526  0.46720101  0.69584389     0.92300
O1531       O  0.65302052  0.49124866  0.62621092    -0.81200
O1532       O  0.60794211  0.39645747  0.61761042    -0.74800
Al1533     Al  0.63755188  0.46403000  0.66441455     1.90100
O1534       O  0.64277517  0.44933706  0.58713686    -0.73800
O1535       O  0.65428607  0.35039154  0.62338959    -0.73700
O1536       O  0.69207092  0.40839046  0.60265872    -0.79300
O1537       O  0.65099147  0.35190383  0.67950865    -0.77600
O1538       O  0.65469720  0.42093979  0.65322567    -1.13700
O1539       O  0.65515476  0.40991429  0.72494734    -0.72900
C1540       C  0.63182639  0.43043460  0.72936314     0.97800
C1541       C  0.64703754  0.48302536  0.59549483     0.94200
Al1542     Al  0.64977831  0.40262106  0.61099587     1.55600
O1543       O  0.67401799  0.48231696  0.68981199    -0.77500
C1544       C  0.64979402  0.33353493  0.65173274     0.98400
C1545       C  0.58932349  0.42141667  0.62696666     0.93300
O1546       O  0.59874597  0.45158562  0.64124243    -0.82800
O1547       O  0.59738616  0.05253970  0.64181748    -0.82300
C1548       C  0.71273117  0.10844279  0.62518919     0.97100
O1549       O  0.69268449  0.09217888  0.60688468    -0.71400
O1550       O  0.64424865  0.05064070  0.59137997    -0.75000
Al1551     Al  0.65037779  0.09912020  0.61233473     1.49000
C1552       C  0.64755094  0.01741753  0.60207970     0.92300
O1553       O  0.66953258  0.02578598  0.69886947    -0.81200
O1554       O  0.65164109  0.09697425  0.72722193    -0.74800
Al1555     Al  0.63460609  0.04196034  0.66874152     1.90100
O1556       O  0.70187051  0.07313883  0.69417745    -0.73800
O1557       O  0.64901525  0.15313033  0.67848759    -0.73700
O1558       O  0.70512262  0.12726493  0.65159814    -0.79300
O1559       O  0.65481586  0.15232225  0.62250193    -0.77600
O1560       O  0.65324847  0.08347610  0.65557847    -1.13700
O1561       O  0.60835208  0.10619537  0.61592812    -0.72900
C1562       C  0.58896089  0.08247058  0.62624845     0.97800
C1563       C  0.69589064  0.04087022  0.70475701     0.94200
Al1564     Al  0.67479246  0.11091998  0.68547936     1.55600
O1565       O  0.65152835  0.01107706  0.63373929    -0.77500
C1566       C  0.64929171  0.17036347  0.64993450     0.98400
C1567       C  0.62727356  0.07769215  0.73070461     0.93300
O1568       O  0.61383734  0.06625684  0.70415787    -0.82800
C1569       C  0.64551322  0.21203651  0.64924955    -0.00600
C1570       C  0.64221522  0.23111481  0.68070683    -0.12500
C1571       C  0.64227494  0.27039498  0.68229549     0.01600
C1572       C  0.64548325  0.29190988  0.65177432    -0.00700
C1573       C  0.64690147  0.27281874  0.62012099    -0.12500
C1574       C  0.64706736  0.23357798  0.61853482     0.01500
H1575       H  0.64053448  0.21531939  0.70456624     0.14500
H1576       H  0.64891354  0.28857963  0.59627539     0.14500
C1577       C  0.64966461  0.21667520  0.58490488     0.36100
C1578       C  0.63987181  0.28743205  0.71586204     0.36000
N1579       N  0.65181747  0.20335352  0.55787577    -0.44200
N1580       N  0.63800547  0.30094509  0.74283662    -0.44200
C1581       C  0.49438701  0.10208303  0.59981450    -0.00600
C1582       C  0.51426395  0.13249427  0.60381003    -0.12500
C1583       C  0.54488168  0.12685058  0.61372386     0.01600
C1584       C  0.55617902  0.08986978  0.61876504    -0.00700
C1585       C  0.53601618  0.05947898  0.61485356    -0.12500
C1586       C  0.50528424  0.06527297  0.60553128     0.01500
H1587       H  0.50563290  0.16073972  0.59995858     0.14500
H1588       H  0.54442953  0.03107842  0.61823513     0.14500
C1589       C  0.98607237  0.04009027  0.60532063     0.36100
C1590       C  0.56354891  0.15979097  0.61970504     0.36000
N1591       N  0.97114567  0.01355596  0.60110680    -0.44200
N1592       N  0.57803722  0.18655954  0.62451050    -0.44200
C1593       C  0.74513056  0.10356562  0.61613668    -0.00600
C1594       C  0.76233849  0.13448492  0.60535338    -0.12500
C1595       C  0.79255727  0.12988776  0.59394531     0.01600
C1596       C  0.80610405  0.09373248  0.59394908    -0.00700
C1597       C  0.78864494  0.06284036  0.60472306    -0.12500
C1598       C  0.75837453  0.06747326  0.61578870     0.01500
H1599       H  0.75186334  0.16205722  0.60496877     0.14500
H1600       H  0.79891272  0.03515752  0.60539473     0.14500
C1601       C  0.74164241  0.03480778  0.62744656     0.36100
C1602       C  0.80854874  0.16258941  0.58114374     0.36000
N1603       N  0.72844436  0.00838601  0.63653962    -0.44200
N1604       N  0.82109411  0.18890395  0.57073359    -0.44200
C1605       C  0.74533629  0.39779240  0.61098100    -0.00600
C1606       C  0.75198305  0.40402232  0.57597148    -0.12500
C1607       C  0.78199946  0.41221106  0.56538430     0.01600
C1608       C  0.80553267  0.41624161  0.59024976    -0.00700
C1609       C  0.79920894  0.40919123  0.62497717    -0.12500
C1610       C  0.76962887  0.39944165  0.63552639     0.01500
H1611       H  0.73377545  0.40179945  0.55673078     0.14500
H1612       H  0.81769477  0.41091617  0.64396995     0.14500
C1613       C  0.76531617  0.39165231  0.67171274     0.36100
C1614       C  0.78852658  0.41262770  0.52899204     0.36000
N1615       N  0.76237188  0.38502482  0.70073053    -0.44200
N1616       N  0.79349583  0.41159957  0.49975746    -0.44200
C1617       C  0.55639942  0.41469519  0.61924208    -0.00600
C1618       C  0.54918601  0.38938874  0.59260958    -0.12500
C1619       C  0.51881080  0.38129467  0.58347395     0.01600
C1620       C  0.49455077  0.39886855  0.60111577    -0.00700
C1621       C  0.50173243  0.42313601  0.62868226    -0.12500
C1622       C  0.53226757  0.43135951  0.63769126     0.01500
H1623       H  0.56746506  0.37609016  0.57825081     0.14500
H1624       H  0.98258230  0.43946988  0.63773548     0.14500
C1625       C  0.53788625  0.45689902  0.66584026     0.36100
C1626       C  0.51364517  0.35507014  0.55570924     0.36000
N1627       N  0.54207900  0.47762299  0.68827915    -0.44200
N1628       N  0.50961863  0.33405825  0.53345177    -0.44200
C1629       C  0.89358073  0.29614121  0.55268455    -0.00600
C1630       C  0.90081346  0.27599937  0.52278085    -0.12500
C1631       C  0.90133091  0.23663128  0.52275393     0.01600
C1632       C  0.89522556  0.21635309  0.55351591    -0.00700
C1633       C  0.88567147  0.23652314  0.58257873    -0.12500
C1634       C  0.88412096  0.27579959  0.58218090     0.01500
H1635       H  0.90731868  0.29103661  0.49956565     0.14500
H1636       H  0.87951532  0.22154182  0.60594661     0.14500
C1637       C  0.87203576  0.29435809  0.61217273     0.36100
C1638       C  0.90485878  0.21949545  0.99104920     0.36000
N1639       N  0.86200497  0.30925977  0.63600756    -0.44200
N1640       N  0.90828065  0.20517185  0.96464108    -0.44200
C1641       C  0.86808202  0.44853814  0.94349044    -0.00600
C1642       C  0.88694768  0.44431296  0.91440255    -0.12500
C1643       C  0.88217483  0.46612929  0.88448705     0.01600
C1644       C  0.85785590  0.49229517  0.88310194    -0.00700
C1645       C  0.83761549  0.49443135  0.91067994    -0.12500
C1646       C  0.84231726  0.47323891  0.94062124     0.01500
H1647       H  0.90691225  0.42617594  0.91591517     0.14500
H1648       H  0.81903842  0.51474054  0.90965427     0.14500
C1649       C  0.82174925  0.48115658  0.96874199     0.36100
C1650       C  0.90435934  0.46400072  0.85706395     0.36000
N1651       N  0.80849116  0.49480588  0.49452568    -0.44200
N1652       N  0.92224057  0.46247879  0.83516453    -0.44200
C1653       C  0.89306517  0.51739558  0.63465932    -0.00600
C1654       C  0.91600147  0.52193170  0.65979112    -0.12500
C1655       C  0.91185069  0.54641652  0.68756970     0.01600
C1656       C  0.88360264  0.56613323  0.69132948    -0.00700
C1657       C  0.86171097  0.56369595  0.66443921    -0.12500
C1658       C  0.86627029  0.53969128  0.63626674     0.01500
H1659       H  0.93687115  0.50536518  0.65828073     0.14500
H1660       H  0.83990295  0.57820019  0.66666890     0.14500
C1661       C  0.84199105  0.53613121  0.61076700     0.36100
C1662       C  0.93656067  0.54900794  0.71264718     0.36000
N1663       N  0.82250841  0.53329330  0.59036502    -0.44200
N1664       N  0.95644142  0.55072388  0.73266191    -0.44200
C1665       C  0.72651812  0.48741624  0.71131272    -0.00600
C1666       C  0.74451616  0.46795944  0.73599365    -0.12500
C1667       C  0.77197268  0.48302227  0.74912804     0.01600
C1668       C  0.78187095  0.51832149  0.73765294    -0.00700
C1669       C  0.76408232  0.53769295  0.71268819    -0.12500
C1670       C  0.73663089  0.52254006  0.69942799     0.01500
H1671       H  0.73697286  0.44072417  0.74518621     0.14500
H1672       H  0.77148649  0.56517510  0.70393074     0.14500
C1673       C  0.71991809  0.54287586  0.67302805     0.36100
C1674       C  0.78858765  0.46276206  0.77562620     0.36000
N1675       N  0.70656676  0.55914759  0.65181142    -0.44200
N1676       N  0.80188754  0.44659282  0.79693974    -0.44200
C1677       C  0.72114434  0.02211980  0.72395552    -0.00600
C1678       C  0.72518524  0.98369425  0.72026740    -0.12500
C1679       C  0.75153999  0.96622267  0.73345155     0.01600
C1680       C  0.77443831  0.98733268  0.75162330    -0.00700
C1681       C  0.77016471  0.02570496  0.75584412    -0.12500
C1682       C  0.74380857  0.04321730  0.74249940     0.01500
H1683       H  0.70837738  0.96751117  0.70569416     0.14500
H1684       H  0.78705179  0.04187258  0.77030788     0.14500
C1685       C  0.74064769  0.08290723  0.74888145     0.36100
C1686       C  0.75465174  0.92662022  0.72664317     0.36000
N1687       N  0.73840788  0.11472208  0.75396012    -0.44200
N1688       N  0.75682418  0.89488543  0.72114502    -0.44200
C1689       C  0.85412933  0.79415190  0.80686858    -0.00600
C1690       C  0.86415562  0.77343716  0.83573118    -0.12500
C1691       C  0.86504227  0.73414954  0.83515684     0.01600
C1692       C  0.85518024  0.71452648  0.80537177    -0.00700
C1693       C  0.84627599  0.73520588  0.77610218    -0.12500
C1694       C  0.84556140  0.77444807  0.77653437     0.01500
H1695       H  0.87120516  0.78797097  0.85899531     0.14500
H1696       H  0.83852351  0.72065560  0.75312272     0.14500
C1697       C  0.83410162  0.79322547  0.74595245     0.36100
C1698       C  0.87660042  0.71486576  0.86540547     0.36000
N1699       N  0.82482161  0.80808709  0.72140981    -0.44200
N1700       N  0.88598124  0.69941371  0.88958546    -0.44200
C1701       C  0.89415250  0.99873955  0.64635342    -0.00600
C1702       C  0.87021468  0.97221596  0.64329029    -0.12500
C1703       C  0.86263186  0.94818223  0.67090821     0.01600
C1704       C  0.87985399  0.94969681  0.70199378    -0.00700
C1705       C  0.90580777  0.97386394  0.70322719    -0.12500
C1706       C  0.91242391  0.99885451  0.67637722     0.01500
H1707       H  0.85611431  0.97195539  0.62005320     0.14500
H1708       H  0.91990188  0.97546781  0.72640642     0.14500
C1709       C  0.93733625  0.02539883  0.68086977     0.36100
C1710       C  0.83615276  0.92397171  0.66719349     0.36000
N1711       N  0.95720017  0.04674138  0.68468875    -0.44200
N1712       N  0.81488110  0.90459596  0.66413842    -0.44200
C1713       C  0.85762209  0.01446870  0.89352067    -0.00600
C1714       C  0.83595165  0.01750396  0.91971707    -0.12500
C1715       C  0.84056969  0.04258710  0.94696497     0.01600
C1716       C  0.86862227  0.06322709  0.94969413    -0.00700
C1717       C  0.88881998  0.06271886  0.92159577    -0.12500
C1718       C  0.88318253  0.03907247  0.89333108     0.01500
H1719       H  0.81567556  0.99966846  0.91928557     0.14500
H1720       H  0.91010017  0.07867694  0.92271566     0.14500
C1721       C  0.90489038  0.03897095  0.86537038     0.36100
C1722       C  0.81652236  0.04531799  0.97238422     0.36000
N1723       N  0.92209956  0.03933232  0.84276177    -0.44200
N1724       N  0.79726688  0.04758017  0.99271931    -0.44200
C1725       C  0.97142693  0.49730778  0.99520487    -0.00600
C1726       C  0.97207615  0.50155155  0.95926295    -0.12500
C1727       C  0.99926943  0.51253177  0.94260881     0.01600
C1728       C  0.52791567  0.51319711  0.96090562    -0.00700
C1729       C  0.52773664  0.50942898  0.99691250    -0.12500
C1730       C  0.49985147  0.49835600  0.51259848     0.01500
H1731       H  0.95171528  0.49473595  0.94407974     0.14500
H1732       H  0.54834921  0.51626991  0.01165085     0.14500
C1733       C  0.50033197  0.49649914  0.54977826     0.36100
C1734       C  0.99896745  0.51621256  0.90551220     0.36000
N1735       N  0.50052019  0.49539152  0.57959022    -0.44200
N1736       N  0.99883500  0.51889684  0.87576626    -0.44200
C1737       C  0.94594421  0.59431476  0.84075750    -0.00600
C1738       C  0.96802842  0.60012004  0.81523280    -0.12500
C1739       C  0.99826591  0.61012617  0.82417998     0.01600
C1740       C  0.00666210  0.61400018  0.85933248    -0.00700
C1741       C  0.98408543  0.60951486  0.88467221    -0.12500
C1742       C  0.95396777  0.59962932  0.87570373     0.01500
H1743       H  0.96142142  0.59772999  0.78824775     0.14500
H1744       H  0.99029875  0.61184765  0.91179311     0.14500
C1745       C  0.93197227  0.59351024  0.90292200     0.36100
C1746       C  0.51936471  0.61202695  0.79617805     0.36000
N1747       N  0.91437363  0.58848583  0.92471005    -0.44200
N1748       N  0.53649370  0.61776001  0.77405941    -0.44200
C1749       C  0.69568838  0.58864957  0.86487304    -0.00600
C1750       C  0.70272435  0.62046019  0.84455161    -0.12500
C1751       C  0.73268965  0.62789988  0.83350915     0.01600
C1752       C  0.75683613  0.60396041  0.84372401    -0.00700
C1753       C  0.74993611  0.57207265  0.86382219    -0.12500
C1754       C  0.71975567  0.56385342  0.87385706     0.01500
H1755       H  0.68463931  0.63962313  0.83661486     0.14500
H1756       H  0.76814368  0.55268072  0.87093900     0.14500
C1757       C  0.71435569  0.52926166  0.89230875     0.36100
C1758       C  0.73777245  0.66025454  0.81175650     0.36000
N1759       N  0.71009558  0.50129173  0.90674253    -0.44200
N1760       N  0.74172019  0.68599597  0.79406653    -0.44200
C1761       C  0.63019613  0.56089200  0.51274849    -0.00600
C1762       C  0.60762233  0.55455525  0.53783358    -0.12500
C1763       C  0.61331938  0.53064197  0.56591772     0.01600
C1764       C  0.64223603  0.51297226  0.56962381    -0.00700
C1765       C  0.66572785  0.52188867  0.54651957    -0.12500
C1766       C  0.66009605  0.54593025  0.51843241     0.01500
H1767       H  0.58463828  0.56577940  0.53410066     0.14500
H1768       H  0.68817063  0.50896968  0.54970110     0.14500
C1769       C  0.68590817  0.54736949  0.99409156     0.36100
C1770       C  0.58835499  0.52281945  0.58922867     0.36000
N1771       N  0.70590066  0.55088713  0.97480268    -0.44200
N1772       N  0.56807245  0.51697314  0.60765719    -0.44200
C1773       C  0.62140805  0.44306017  0.76411630    -0.00600
C1774       C  0.59309081  0.46231134  0.76571568    -0.12500
C1775       C  0.58642154  0.48666499  0.79286056     0.01600
C1776       C  0.60764656  0.49117252  0.82003909    -0.00700
C1777       C  0.63436388  0.46896876  0.82070721    -0.12500
C1778       C  0.64150426  0.44513843  0.79304110     0.01500
H1779       H  0.57693507  0.46056118  0.74431190     0.14500
H1780       H  0.65066901  0.47204914  0.84190308     0.14500
C1781       C  0.67052097  0.42547876  0.79409419     0.36100
C1782       C  0.55810568  0.50771288  0.79169219     0.36000
N1783       N  0.69375277  0.40965762  0.79512674    -0.44200
N1784       N  0.53530758  0.52440058  0.79071558    -0.44200
C1785       C  0.75797923  0.90054622  0.85655781    -0.00600
C1786       C  0.73800329  0.87000317  0.85943924    -0.12500
C1787       C  0.70744224  0.87518588  0.86954714     0.01600
C1788       C  0.69616446  0.91192463  0.87580479    -0.00700
C1789       C  0.71658842  0.94225604  0.87371723    -0.12500
C1790       C  0.74720522  0.93691549  0.86419536     0.01500
H1791       H  0.74641737  0.84201652  0.85418248     0.14500
H1792       H  0.70837065  0.97048246  0.87822716     0.14500
C1793       C  0.76638112  0.96974889  0.86024593     0.36100
C1794       C  0.68871838  0.84202009  0.87406442     0.36000
N1795       N  0.78115213  0.99654003  0.85695814    -0.44200
N1796       N  0.67411364  0.81514736  0.87778223    -0.44200
C1797       C  0.94637858  0.91688158  0.83992455    -0.00600
C1798       C  0.96584312  0.94784040  0.84469031    -0.12500
C1799       C  0.99678735  0.94286486  0.85355366     0.01600
C1800       C  0.00853626  0.90632059  0.85812424    -0.00700
C1801       C  0.98966489  0.87533219  0.85200069    -0.12500
C1802       C  0.95892108  0.88023582  0.84218724     0.01500
H1803       H  0.95668460  0.97596762  0.84276901     0.14500
H1804       H  0.99906231  0.84730679  0.85461054     0.14500
C1805       C  0.94130173  0.84711415  0.83360345     0.36100
C1806       C  0.51469631  0.97130863  0.86128593     0.36000
N1807       N  0.92757682  0.82036904  0.82644319    -0.44200
N1808       N  0.52938421  0.99791586  0.86616243    -0.44200
C1809       C  0.60401760  0.79190366  0.90417631    -0.00600
C1810       C  0.60436961  0.77197569  0.93555272    -0.12500
C1811       C  0.60478945  0.73256608  0.93641753     0.01600
C1812       C  0.60491965  0.71187583  0.90524486    -0.00700
C1813       C  0.60607934  0.73189179  0.87400987    -0.12500
C1814       C  0.60556239  0.77111433  0.87308971     0.01500
H1815       H  0.60346232  0.78717854  0.95968186     0.14500
H1816       H  0.60658900  0.71682181  0.84978295     0.14500
C1817       C  0.60614108  0.78874266  0.83948810     0.36100
C1818       C  0.60424179  0.71449381  0.96978487     0.36000
N1819       N  0.60656947  0.80269067  0.81249993    -0.44200
N1820       N  0.60380088  0.70008843  0.99656959    -0.44200
C1821       C  0.60592467  0.01297047  0.82154872    -0.00600
C1822       C  0.62726104  0.04263115  0.82429334    -0.12500
C1823       C  0.63301959  0.06679364  0.79613148     0.01600
C1824       C  0.61672476  0.06195464  0.76466424    -0.00700
C1825       C  0.59305093  0.03463125  0.76369761    -0.12500
C1826       C  0.58811696  0.00986999  0.79121575     0.01500
H1827       H  0.64088002  0.04544662  0.84772069     0.14500
H1828       H  0.57965416  0.03047287  0.74029061     0.14500
C1829       C  0.56532322  0.98057633  0.78713005     0.36100
C1830       C  0.65663327  0.09504957  0.79985943     0.36000
N1831       N  0.54711158  0.95709667  0.78366430    -0.44200
N1832       N  0.67551235  0.11779662  0.80292386    -0.44200
C1833       C  0.62816310  0.94023049  0.51989138    -0.00600
C1834       C  0.65770845  0.95659785  0.52320540    -0.12500
C1835       C  0.66537109  0.97988981  0.55107241     0.01600
C1836       C  0.64387914  0.98609121  0.57730239    -0.00700
C1837       C  0.61575860  0.96641286  0.57631411    -0.12500
C1838       C  0.60762215  0.94384037  0.54787740     0.01500
H1839       H  0.67269796  0.96877614  0.99611187     0.14500
H1840       H  0.59903946  0.97117097  0.59642652     0.14500
C1841       C  0.57694984  0.92810000  0.54670432     0.36100
C1842       C  0.69469867  0.99905127  0.55101724     0.36000
N1843       N  0.55230736  0.91562833  0.54579406    -0.44200
N1844       N  0.71821409  0.01440513  0.55067406    -0.44200
C1845       C  0.52647381  0.98910247  0.96322009    -0.00600
C1846       C  0.99636384  0.98219870  0.95501995    -0.12500
C1847       C  0.97051427  0.99470821  0.97317548     0.01600
C1848       C  0.97558403  0.01844631  0.50382761    -0.00700
C1849       C  0.50257482  0.02664518  0.50996231    -0.12500
C1850       C  0.53017561  0.01393785  0.99098464     0.01500
H1851       H  0.99271633  0.96456564  0.93262752     0.14500
H1852       H  0.50606592  0.04542422  0.53154423     0.14500
C1853       C  0.55872393  0.02424362  0.50491754     0.36100
C1854       C  0.94021410  0.98535837  0.96011622     0.36000
N1855       N  0.58294162  0.03271412  0.51496628    -0.44200
N1856       N  0.91597619  0.97772865  0.94958052    -0.44200
loop_ 
_geom_bond_atom_site_label_1 
_geom_bond_atom_site_label_2 
_geom_bond_distance 
_geom_bond_site_symmetry_2 
_ccdc_geom_bond_type 
O1           C16   1.279       .  A
O1           Al9   1.961       .  S
C2           O12   1.273       .  A
C2            O3   1.260       .  A
C2         C1336   1.462       .  S
O3           Al5   1.868       .  S
O4            C6   1.260       .  A
O4           Al5   1.920       .  S
Al5          O13   1.929       .  S
Al5          O15   1.856       .  S
Al5          O14   1.770       .  S
C6           O19   1.258       .  A
C6          C429   1.487   1_565  S
O7           C17   1.280       .  A
O7           Al9   1.986       .  S
O8           C21   1.268       .  A
O8          Al18   1.968       .  S
Al9          O22   1.863       .  S
Al9          O19   1.909       .  S
Al9          O14   1.765       .  S
O10          C17   1.252       .  A
O10         Al18   1.841       .  S
O11          C20   1.268       .  A
O11         Al18   1.918       .  S
O12         Al18   1.945       .  S
O13          C20   1.266       .  A
O14         Al18   1.781       .  S
O15          C16   1.260       .  A
C16         C396   1.477       .  S
C17         C453   1.488       .  S
C20         C417   1.498       .  S
C21          O22   1.249       .  A
C21         C905   1.503       .  S
O23          C38   1.251       .  A
O23         Al31   1.875       .  S
C24          O34   1.259       .  A
C24          O25   1.270       .  A
C24        C1276   1.469       .  S
O25         Al27   1.933       .  S
O26          C28   1.252       .  A
O26         Al27   1.852       .  S
Al27         O35   1.896       .  S
Al27         O37   1.951       .  S
Al27         O36   1.776       .  S
C28          O41   1.276       .  A
C28         C336   1.473       .  S
O29          C39   1.255       .  A
O29         Al31   1.892       .  S
O30          C43   1.260       .  A
O30         Al40   1.862       .  S
Al31         O44   1.953       .  S
Al31         O41   1.979       .  S
Al31         O36   1.769       .  S
O32          C39   1.264       .  A
O32         Al40   1.935       .  S
O33          C42   1.272       .  A
O33         Al40   1.949       .  S
O34         Al40   1.871       .  S
O35          C42   1.263       .  A
O36         Al40   1.775       .  S
O37          C38   1.267       .  A
C38         C833   1.490       .  S
C39         C384   1.478       .  S
C42         C420   1.499       .  S
C43          O44   1.275       .  A
C43         C357   1.489       .  S
O45          C60   1.250       .  A
O45         Al53   1.866       .  S
C46          O56   1.258       .  A
C46          O47   1.275       .  A
C46         C393   1.469       .  S
O47         Al49   1.959       .  S
O48          C50   1.247       .  A
O48         Al49   1.823       .  S
Al49         O57   1.899       .  S
Al49         O59   1.979       .  S
Al49         O58   1.777       .  S
C50          O63   1.280       .  A
C50         C288   1.480       .  S
O51          C61   1.257       .  A
O51         Al53   1.900       .  S
O52          C65   1.259       .  A
O52         Al62   1.850       .  S
Al53         O66   1.957       .  S
Al53         O63   1.987       .  S
Al53         O58   1.765       .  S
O54          C61   1.263       .  A
O54         Al62   1.933       .  S
O55          C64   1.271       .  A
O55         Al62   1.949       .  S
O56         Al62   1.864       .  S
O57          C64   1.263       .  A
O58         Al62   1.772       .  S
O59          C60   1.270       .  A
C60         C312   1.505       .  S
C61         C321   1.485   1_565  S
C64         C297   1.499       .  S
C65          O66   1.278       .  A
C65         C405   1.477       .  S
O67          C82   1.272       .  A
O67         Al75   1.937       .  S
C68          O78   1.273       .  A
C68          O69   1.258       .  A
C68         C360   1.482       .  S
O69         Al71   1.869       .  S
O70          C72   1.261       .  A
O70         Al71   1.916       .  S
Al71         O79   1.937       .  S
Al71         O81   1.844       .  S
Al71         O80   1.772       .  S
C72          O85   1.255       .  A
C72         C252   1.475       .  S
O73          C83   1.276       .  A
O73         Al75   1.970       .  S
O74          C87   1.268       .  A
O74         Al84   1.966       .  S
Al75         O88   1.876       .  S
Al75         O85   1.894       .  S
Al75         O80   1.774       .  S
O76          C83   1.253       .  A
O76         Al84   1.841       .  S
O77          C86   1.268       .  A
O77         Al84   1.910       .  S
O78         Al84   1.954       .  S
O79          C86   1.269       .  A
O80         Al84   1.777       .  S
O81          C82   1.256       .  A
C82         C345   1.456       .  S
C83         C276   1.464       .  S
C86         C300   1.498       .  S
C87          O88   1.249       .  A
C87         C264   1.500       .  S
O89         C104   1.275       .  A
O89         Al97   1.950       .  S
C90         O100   1.272       .  A
C90          O91   1.263       .  A
C90        C1156   1.481       .  S
O91         Al93   1.873       .  S
O92          C94   1.261       .  A
O92         Al93   1.935       .  S
Al93        O101   1.933       .  S
Al93        O103   1.856       .  S
Al93        O102   1.776       .  S
C94         O107   1.256       .  A
C94         C261   1.484       .  S
O95         C105   1.275       .  A
O95         Al97   1.973       .  S
O96         C109   1.269       .  A
O96        Al570   1.968       .  S
Al97        O107   1.905       .  S
Al97        O574   1.865       .  S
Al97        O102   1.771       .  S
O98         C105   1.253       .  A
O98        Al106   1.856       .  S
O99         C108   1.266       .  A
O99        Al106   1.916       .  S
O100       Al106   1.937       .  S
O101        C108   1.266       .  A
O102       Al106   1.778       .  S
O103        C104   1.259       .  A
C104        C216   1.458       .  S
C105        C797   1.476   1_554  S
Al106       O560   1.953   1_554  S
C108        C237   1.499       .  S
C109        O110   1.247       .  A
C109        C249   1.497       .  S
O110       Al561   1.858       .  S
O111        C590   1.249   1_554  A
O111       Al119   1.861       .  S
C112        O122   1.260       .  A
C112        O113   1.272       .  A
C112       C1117   1.464       .  S
O113       Al115   1.947       .  S
O114        C116   1.250       .  A
O114       Al115   1.833       .  S
Al115       O123   1.898       .  S
Al115       O589   1.955   1_554  S
Al115       O124   1.780       .  S
C116        O129   1.280       .  A
C116        C456   1.487   1_554  S
O117        C127   1.257       .  A
O117       Al119   1.902       .  S
O118        C131   1.261       .  A
O118       Al128   1.859       .  S
Al119       O132   1.968       .  S
Al119       O129   1.989       .  S
Al119       O124   1.766       .  S
O120        C127   1.263       .  A
O120       Al128   1.942       .  S
O121        C130   1.271       .  A
O121       Al128   1.952       .  S
O122       Al128   1.871       .  S
O123        C130   1.261       .  A
O124       Al128   1.773       .  S
O125        C126   1.270       .  A
O125       Al579   1.981       .  S
C126        O575   1.245       .  A
C126        C324   1.505       .  S
C127        C309   1.487   1_545  S
C130        C240   1.499       .  S
C131        O132   1.280       .  A
C131        C204   1.481       .  S
O133        C148   1.252       .  A
O133       Al141   1.871       .  S
C134        O144   1.264       .  A
C134        O135   1.271       .  A
C134        C213   1.474       .  S
O135       Al137   1.938       .  S
O136        C138   1.249       .  A
O136       Al137   1.835       .  S
Al137       O145   1.902       .  S
Al137       O147   1.943       .  S
Al137       O146   1.777       .  S
C138        O151   1.272       .  A
C138        C273   1.463       .  S
O139        C149   1.254       .  A
O139       Al141   1.896       .  S
O140        C153   1.262       .  A
O140       Al150   1.860       .  S
Al141       O154   1.945       .  S
Al141       O151   1.961       .  S
Al141       O146   1.772       .  S
O142        C149   1.261       .  A
O142       Al150   1.933       .  S
O143        C152   1.267       .  A
O143       Al150   1.932       .  S
O144       Al150   1.881       .  S
O145        C152   1.263       .  A
O146       Al150   1.777       .  S
O147        C148   1.264       .  A
C148        C381   1.496       .  S
C149        C372   1.480       .  S
C152        C180   1.492       .  S
C153        O154   1.275       .  A
C153        C225   1.479       .  S
O155        C170   1.275       .  A
O155       Al163   1.943       .  S
C156        O166   1.275       .  A
C156        O157   1.259       .  A
C156        C201   1.469       .  S
O157       Al159   1.869       .  S
O158        C160   1.265       .  A
O158       Al159   1.935       .  S
Al159       O167   1.946       .  S
Al159       O169   1.859       .  S
Al159       O168   1.769       .  S
C160        O173   1.259       .  A
C160        C444   1.484   1_545  S
O161        C171   1.279       .  A
O161       Al163   1.983       .  S
O162        C175   1.270       .  A
O162       Al172   1.984       .  S
Al163       O176   1.866       .  S
Al163       O173   1.903       .  S
Al163       O168   1.761       .  S
O164        C171   1.249       .  A
O164       Al172   1.827       .  S
O165        C174   1.263       .  A
O165       Al172   1.895       .  S
O166       Al172   1.959       .  S
O167        C174   1.270       .  A
O168       Al172   1.777       .  S
O169        C170   1.259       .  A
C170        C192   1.474       .  S
C171        C285   1.475       .  S
C174        C177   1.494       .  S
C175        O176   1.249       .  A
C175        C432   1.504       .  S
C177        C178   1.408       .  A
C177        C182   1.416       .  A
C178        C179   1.403       .  A
C178        H183   1.085       .  S
C179        C180   1.416       .  A
C179        C186   1.445       .  S
C180        C181   1.407       .  A
C181        C182   1.401       .  A
C181        H184   1.085       .  S
C182        C185   1.444       .  S
C185        N187   1.157       .  T
C186        N188   1.158       .  T
C189       C1040   1.459       .  S
C189        C190   1.393   1_655  A
C189        C194   1.412   1_655  A
C190        C191   1.395       .  A
C190        H195   1.085       .  S
C191        C192   1.419       .  A
C191        C198   1.443       .  S
C192        C193   1.400       .  A
C193        C194   1.394       .  A
C193        H196   1.085       .  S
C194       C1125   1.444   1_455  S
C197       C1122   1.444       .  S
C197        N199   1.157       .  T
C198        N200   1.156       .  T
C201        C202   1.396       .  A
C201        C206   1.414       .  A
C202        C203   1.400       .  A
C202        H207   1.085       .  S
C203        C204   1.420       .  A
C203        C210   1.445       .  S
C204        C205   1.401       .  A
C205        C206   1.400       .  A
C205        H208   1.085       .  S
C206        C209   1.445       .  S
C209        N211   1.157       .  T
C210        N212   1.157       .  T
C213        C214   1.406       .  A
C213        C218   1.415       .  A
C214        C215   1.400       .  A
C214        H219   1.085       .  S
C215        C216   1.405       .  A
C215        C222   1.443       .  S
C216        C217   1.397       .  A
C217        C218   1.393       .  A
C217        H220   1.086       .  S
C218        C221   1.443       .  S
C221        N223   1.157       .  T
C222        N224   1.157       .  T
C225        C226   1.407       .  A
C225        C230   1.410       .  A
C226        C227   1.395       .  A
C226        H231   1.085       .  S
C227        C228   1.412   1_455  A
C227        C234   1.444       .  S
C228       C1018   1.484       .  S
C228        C229   1.409   1_655  A
C229        C230   1.398       .  A
C229       H1160   1.085   1_455  S
C230        C233   1.443       .  S
H232       C1157   1.085       .  S
C233        N235   1.157       .  T
C234        N236   1.157       .  T
C237        C238   1.407       .  A
C237        C242   1.419       .  A
C238        C239   1.407       .  A
C238        H243   1.085   1_554  S
C239        C240   1.420       .  A
C239        C710   1.444   1_554  S
C240        C241   1.405       .  A
C241        C242   1.402       .  A
C241        H244   1.085       .  S
C242        C245   1.444       .  S
C245        N247   1.157       .  T
C246        C703   1.443       .  S
C246        N248   1.157       .  T
C249        C250   1.408       .  A
C249        C254   1.428       .  A
C250        C251   1.407       .  A
C250        H255   1.084       .  S
C251        C252   1.412       .  A
C251        C258   1.444       .  S
C252        C253   1.393       .  A
C253        C254   1.397       .  A
C253        H256   1.086       .  S
C254        C257   1.445       .  S
C257        N723   1.157       .  T
C258        N260   1.157       .  T
N259        C721   1.157       .  T
C261        C262   1.398       .  A
C261        C266   1.413       .  A
C262        C263   1.406       .  A
C262        H267   1.085       .  S
C263        C264   1.423       .  A
C263        C270   1.442       .  S
C264        C265   1.406       .  A
C265        C266   1.407       .  A
C265        H268   1.084       .  S
C266        C269   1.443       .  S
C269        N271   1.157       .  T
C270        N272   1.157       .  T
C273        C274   1.401       .  A
C273        C278   1.411       .  A
C274        C275   1.398       .  A
C274        H279   1.085       .  S
C275        C276   1.409       .  A
C275        C282   1.443       .  S
C276        C277   1.402       .  A
C277        C278   1.402       .  A
C277        H280   1.084       .  S
C278        C281   1.444       .  S
C281        N283   1.157       .  T
C282        N284   1.157       .  T
C285        C286   1.391   1_545  A
C285        C290   1.424       .  A
C286        C287   1.397       .  A
C286        H291   1.085       .  S
C287        C288   1.428       .  A
C287        C294   1.445       .  S
C288        C289   1.394   1_565  A
C289        C290   1.398       .  A
C289        H292   1.085       .  S
C290        C293   1.445       .  S
C293        N295   1.157       .  T
C294        N296   1.157       .  T
C297        C298   1.407       .  A
C297        C302   1.419       .  A
C298        C299   1.403       .  A
C298        H303   1.084       .  S
C299        C300   1.418       .  A
C299        C306   1.445       .  S
C300        C301   1.407       .  A
C301        C302   1.405       .  A
C301        H304   1.084       .  S
C302        C305   1.444       .  S
C305        N307   1.157       .  T
C306        N308   1.158       .  T
C309        C310   1.406       .  A
C309        C314   1.406       .  A
C310        C311   1.411       .  A
C310        H315   1.085       .  S
C311        C312   1.416       .  A
C311        C318   1.441       .  S
C312        C313   1.415       .  A
C313        C314   1.404       .  A
C313        H316   1.085       .  S
C314        C317   1.443   1_565  S
C317        N319   1.157       .  T
C318        N320   1.157       .  T
C321        C322   1.396       .  A
C321        C326   1.413       .  A
C322        C323   1.402       .  A
C322        H327   1.085   1_545  S
C323        C324   1.429       .  A
C323        C330   1.446       .  S
C324        C325   1.408       .  A
C325        C326   1.411       .  A
C325        H328   1.084       .  S
C326        C329   1.443       .  S
C329        N331   1.157       .  T
C330        N332   1.158       .  T
C333        C569   1.479       .  S
C333        C334   1.404       .  A
C333       C1730   1.412       .  A
C334        C335   1.407       .  A
C334        H339   1.085       .  S
C335       C1264   1.413       .  A
C335        C342   1.444       .  S
C336        C337   1.402       .  A
C336       C1263   1.413   1_455  A
C337        C802   1.403   1_455  A
C337        H340   1.084       .  S
C338       C1725   1.413   1_554  A
C338        C801   1.403   1_654  A
C338        C341   1.443       .  S
C341        N343   1.157       .  T
C342        N344   1.157       .  T
C345        C346   1.397       .  A
C345        C350   1.409       .  A
C346        C347   1.396       .  A
C346        H351   1.075       .  S
C347        C348   1.413       .  A
C347       C1282   1.444       .  S
C348        C952   1.467       .  S
C348        C349   1.403       .  A
C349        C350   1.389       .  A
C349        H352   1.082       .  S
C350        C353   1.446       .  S
C353        N355   1.157       .  T
C354       C1275   1.443   1_455  S
C354        N356   1.157       .  T
C357        C358   1.413       .  A
C357        C362   1.412       .  A
C358        C359   1.399       .  A
C358        H363   1.084       .  S
C359        C360   1.408       .  A
C359        C366   1.445       .  S
C360        C361   1.408       .  A
C361        C362   1.399       .  A
C361        H364   1.085       .  S
C362        C365   1.444       .  S
C365        N367   1.157       .  T
C366        N368   1.157       .  T
C369        C502   1.490   1_554  S
C369        C370   1.403       .  A
C369        C374   1.420       .  A
C370        C371   1.401       .  A
C370        H375   1.085       .  S
C371        C372   1.412       .  A
C371        C378   1.442       .  S
C372        C373   1.400       .  A
C373        C374   1.406       .  A
C373        H376   1.085       .  S
C374        C841   1.444   1_554  S
C377        C838   1.444       .  S
C377        N379   1.157       .  T
C378        N380   1.157       .  T
C381        C382   1.412       .  A
C381        C386   1.416       .  A
C382        C383   1.401       .  A
C382        H387   1.083       .  S
C383        C384   1.404       .  A
C383        C390   1.443       .  S
C384        C385   1.404       .  A
C385        C386   1.406       .  A
C385        H388   1.086       .  S
C386        C389   1.443       .  S
C389        N391   1.157       .  T
C390        N392   1.157       .  T
C393        C394   1.396       .  A
C393        C398   1.415       .  A
C394        C395   1.400       .  A
C394        H399   1.085       .  S
C395        C396   1.420       .  A
C395        C402   1.444       .  S
C396        C397   1.398       .  A
C397        C398   1.397       .  A
C397        H400   1.085       .  S
C398        C401   1.444       .  S
C401        N403   1.157       .  T
C402        N404   1.157       .  T
C405        C406   1.401       .  A
C405        C410   1.421       .  A
C406        C407   1.397       .  A
C406        H411   1.085       .  S
C407        C408   1.412       .  A
C407       C1342   1.445       .  S
C408        C930   1.463       .  S
C408        C409   1.393       .  A
C409        C410   1.396       .  A
C409        H412   1.085       .  S
C410        C413   1.445       .  S
C413        N415   1.157       .  T
C414       C1335   1.445   1_455  S
C414        N416   1.157   1_565  T
C417        C418   1.405       .  A
C417        C422   1.421       .  A
C418        C419   1.405       .  A
C418        H423   1.085       .  S
C419        C420   1.419       .  A
C419        C426   1.444       .  S
C420        C421   1.406       .  A
C421        C422   1.403       .  A
C421        H424   1.085       .  S
C422        C425   1.445       .  S
C425        N427   1.158       .  T
C426        N428   1.157       .  T
C429        C430   1.409       .  A
C429        C434   1.406       .  A
C430        C431   1.414       .  A
C430        H435   1.084       .  S
C431        C432   1.415       .  A
C431        C438   1.442       .  S
C432        C433   1.414       .  A
C433        C434   1.397       .  A
C433        H436   1.084       .  S
C434        C437   1.446   1_545  S
C437        N439   1.157       .  T
C438        N440   1.157       .  T
C441        C485   1.502   1_554  S
C441        C442   1.414       .  A
C441        C446   1.417       .  A
C442        C443   1.401       .  A
C442        H911   1.084   1_554  S
C443        C444   1.405       .  A
C443        C450   1.444   1_565  S
C444        C445   1.407       .  A
C445        C446   1.411       .  A
C445        H448   1.084       .  S
C446        C449   1.443       .  S
H447        C906   1.084       .  S
C449        N451   1.157       .  T
C450        N452   1.157       .  T
C453        C458   1.407   1_565  A
C453       C1382   1.415   1_455  A
C454        C455   1.403       .  A
C454       C1381   1.414       .  A
C454        H459   1.084       .  S
C455        C920   1.406   1_565  A
C455        C462   1.443       .  S
C456        C919   1.406   1_545  A
C456       C1385   1.415   1_556  A
C457       C1384   1.415   1_455  A
C457        C922   1.406   1_554  A
C457        H460   1.084       .  S
C458        C921   1.403       .  A
C458        C925   1.444       .  S
C461        C922   1.444   1_554  S
C461        N463   1.157       .  T
C462        N464   1.157       .  T
O465        C480   1.279       .  A
O465       Al473   1.965       .  S
C466        O476   1.272       .  A
C466        O467   1.258       .  A
C466       C1800   1.460       .  S
O467       Al469   1.864       .  S
O468        C470   1.261       .  A
O468       Al469   1.921       .  S
Al469       O477   1.935       .  S
Al469       O479   1.846       .  S
Al469       O478   1.770       .  S
C470        O483   1.258       .  A
C470        C893   1.484   1_565  S
O471        C481   1.282       .  A
O471       Al473   1.997       .  S
O472        C485   1.268       .  A
O472       Al482   1.967       .  S
Al473       O486   1.867       .  S
Al473       O483   1.906       .  S
Al473       O478   1.766       .  S
O474        C481   1.253       .  A
O474       Al482   1.845       .  S
O475        C484   1.267       .  A
O475       Al482   1.913       .  S
O476       Al482   1.946       .  S
O477        C484   1.268       .  A
O478       Al482   1.780       .  S
O479        C480   1.257       .  A
C480        C860   1.480       .  S
C481        C917   1.493       .  S
C484        C881   1.500       .  S
C485        O486   1.250       .  A
O487        C502   1.250       .  A
O487       Al495   1.872       .  S
C488        O498   1.259       .  A
C488        O489   1.271       .  A
C488       C1740   1.474       .  S
O489       Al491   1.939       .  S
O490        C492   1.252       .  A
O490       Al491   1.852       .  S
Al491       O499   1.904       .  S
Al491       O501   1.956       .  S
Al491       O500   1.777       .  S
C492        O505   1.277       .  A
C492        C800   1.474       .  S
O493        C503   1.255       .  A
O493       Al495   1.889       .  S
O494        C507   1.260       .  A
O494       Al504   1.861       .  S
Al495       O508   1.956       .  S
Al495       O505   1.980       .  S
Al495       O500   1.770       .  S
O496        C503   1.264       .  A
O496       Al504   1.931       .  S
O497        C506   1.271       .  A
O497       Al504   1.939       .  S
O498       Al504   1.872       .  S
O499        C506   1.265       .  A
O500       Al504   1.770       .  S
O501        C502   1.268       .  A
C503        C848   1.475       .  S
C506        C884   1.499       .  S
C507        O508   1.275       .  A
C507        C821   1.489       .  S
O509        C524   1.249       .  A
O509       Al517   1.861       .  S
C510        O520   1.257       .  A
C510        O511   1.274       .  A
C510        C857   1.465       .  S
O511       Al513   1.953       .  S
O512        C514   1.247       .  A
O512       Al513   1.827       .  S
Al513       O521   1.886       .  S
Al513       O523   1.975       .  S
Al513       O522   1.772       .  S
C514        O527   1.280       .  A
C514        C752   1.481       .  S
O515        C525   1.257       .  A
O515       Al517   1.893       .  S
O516        C529   1.258       .  A
O516       Al526   1.850       .  S
Al517       O530   1.953       .  S
Al517       O527   1.989       .  S
Al517       O522   1.760       .  S
O518        C525   1.265       .  A
O518       Al526   1.936       .  S
O519        C528   1.272       .  A
O519       Al526   1.956       .  S
O520       Al526   1.860       .  S
O521        C528   1.260       .  A
O522       Al526   1.769       .  S
O523        C524   1.270       .  A
C524        C776   1.500       .  S
C525        C785   1.477   1_565  S
C528        C761   1.496       .  S
C529        O530   1.277       .  A
C529        C869   1.475       .  S
O531        C546   1.275       .  A
O531       Al539   1.948       .  S
C532        O542   1.275       .  A
C532        O533   1.261       .  A
C532        C824   1.483       .  S
O533       Al535   1.867       .  S
O534        C536   1.258       .  A
O534       Al535   1.915       .  S
Al535       O543   1.931       .  S
Al535       O545   1.855       .  S
Al535       O544   1.777       .  S
C536        O549   1.254       .  A
C536        C716   1.474       .  S
O537        C547   1.274       .  A
O537       Al539   1.967       .  S
O538        C551   1.268       .  A
O538       Al548   1.959       .  S
Al539       O552   1.862       .  S
Al539       O549   1.897       .  S
Al539       O544   1.771       .  S
O540        C547   1.249       .  A
O540       Al548   1.832       .  S
O541        C550   1.264       .  A
O541       Al548   1.905       .  S
O542       Al548   1.954       .  S
O543        C550   1.265       .  A
O544       Al548   1.780       .  S
O545        C546   1.260       .  A
C546        C809   1.460       .  S
C547        C740   1.465       .  S
C550        C764   1.495       .  S
C551        O552   1.248       .  A
C551        C728   1.497       .  S
O553        C568   1.273       .  A
O553       Al561   1.950       .  S
C554        O564   1.271       .  A
C554        O555   1.260       .  A
C554       C1620   1.480       .  S
O555       Al557   1.865       .  S
O556        C558   1.264       .  A
O556       Al557   1.935       .  S
Al557       O565   1.941       .  S
Al557       O567   1.858       .  S
Al557       O566   1.773       .  S
C558        O571   1.256       .  A
C558        C725   1.480       .  S
O559        C569   1.276       .  A
O559       Al561   1.980       .  S
O560        C573   1.268       .  A
Al561       O571   1.895       .  S
Al561       O566   1.768       .  S
O562        C569   1.254       .  A
O562       Al570   1.861       .  S
O563        C572   1.268       .  A
O563       Al570   1.921       .  S
O564       Al570   1.937       .  S
O565        C572   1.269       .  A
O566       Al570   1.781       .  S
O567        C568   1.258       .  A
C568        C680   1.461       .  S
C572        C701   1.507       .  S
C573        O574   1.249   1_556  A
C573        C713   1.496       .  S
O575       Al583   1.857       .  S
C576        O586   1.258       .  A
C576        O577   1.274       .  A
C576       C1581   1.460       .  S
O577       Al579   1.949       .  S
O578        C580   1.250       .  A
O578       Al579   1.833       .  S
Al579       O587   1.913       .  S
Al579       O588   1.780       .  S
C580        O593   1.280       .  A
C580        C920   1.485       .  S
O581        C591   1.255       .  A
O581       Al583   1.893       .  S
O582        C595   1.258       .  A
O582       Al592   1.844       .  S
Al583       O596   1.960       .  S
Al583       O593   1.992       .  S
Al583       O588   1.762       .  S
O584        C591   1.263       .  A
O584       Al592   1.937       .  S
O585        C594   1.273       .  A
O585       Al592   1.952       .  S
O586       Al592   1.859       .  S
O587        C594   1.267       .  A
O588       Al592   1.772       .  S
O589        C590   1.267       .  A
C590        C788   1.494       .  S
C591        C773   1.482   1_545  S
C594        C704   1.506       .  S
C595        O596   1.279       .  A
C595        C668   1.477       .  S
O597        C612   1.252       .  A
O597       Al605   1.873       .  S
C598        O608   1.264       .  A
C598        O599   1.271       .  A
C598        C677   1.476       .  S
O599       Al601   1.940       .  S
O600        C602   1.248       .  A
O600       Al601   1.828       .  S
Al601       O609   1.900       .  S
Al601       O611   1.931       .  S
Al601       O610   1.782       .  S
C602        O615   1.274       .  A
C602        C737   1.465       .  S
O603        C613   1.252       .  A
O603       Al605   1.895       .  S
O604        C617   1.262       .  A
O604       Al614   1.863       .  S
Al605       O618   1.951       .  S
Al605       O615   1.966       .  S
Al605       O610   1.773       .  S
O606        C613   1.260       .  A
O606       Al614   1.930       .  S
O607        C616   1.268       .  A
O607       Al614   1.936       .  S
O608       Al614   1.881       .  S
O609        C616   1.261       .  A
O610       Al614   1.779       .  S
O611        C612   1.261       .  A
C612        C845   1.494       .  S
C613        C836   1.481       .  S
C616        C644   1.496       .  S
C617        O618   1.277       .  A
C617        C689   1.484       .  S
O619        C634   1.278       .  A
O619       Al627   1.954       .  S
C620        O630   1.274       .  A
C620        O621   1.259       .  A
C620        C665   1.462       .  S
O621       Al623   1.864       .  S
O622        C624   1.262       .  A
O622       Al623   1.929       .  S
Al623       O631   1.940       .  S
Al623       O633   1.851       .  S
Al623       O632   1.771       .  S
C624        O637   1.258       .  A
C624        C908   1.484   1_545  S
O625        C635   1.281       .  A
O625       Al627   1.988       .  S
O626        C639   1.268       .  A
O626       Al636   1.971       .  S
Al627       O640   1.861       .  S
Al627       O637   1.903       .  S
Al627       O632   1.760       .  S
O628        C635   1.248       .  A
O628       Al636   1.827       .  S
O629        C638   1.265       .  A
O629       Al636   1.904       .  S
O630       Al636   1.948       .  S
O631        C638   1.269       .  A
O632       Al636   1.780       .  S
O633        C634   1.259       .  A
C634        C656   1.476       .  S
C635        C749   1.483       .  S
C638        C641   1.497       .  S
C639        O640   1.249       .  A
C639        C896   1.503       .  S
C641        C642   1.408       .  A
C641        C646   1.418       .  A
C642        C643   1.405       .  A
C642        H647   1.084       .  S
C643        C644   1.418       .  A
C643        C650   1.444       .  S
C644        C645   1.406       .  A
C645        C646   1.400       .  A
C645        H648   1.085       .  S
C646        C649   1.445       .  S
C649        N651   1.157       .  T
C650        N652   1.158       .  T
C653       C1504   1.463       .  S
C653        C654   1.394   1_655  A
C653        C658   1.413   1_655  A
C654        C655   1.397       .  A
C654        H659   1.085       .  S
C655        C656   1.421       .  A
C655        C662   1.444       .  S
C656        C657   1.399       .  A
C657        C658   1.395       .  A
C657        H660   1.085       .  S
C658       C1589   1.444   1_455  S
C661       C1586   1.445       .  S
C661        N663   1.157       .  T
C662        N664   1.157       .  T
C665        C666   1.392       .  A
C665        C670   1.413       .  A
C666        C667   1.395       .  A
C666        H671   1.085       .  S
C667        C668   1.422       .  A
C667        C674   1.444       .  S
C668        C669   1.400       .  A
C669        C670   1.397       .  A
C669        H672   1.085       .  S
C670        C673   1.444       .  S
C673        N675   1.157       .  T
C674        N676   1.157       .  T
C677        C678   1.405       .  A
C677        C682   1.416       .  A
C678        C679   1.399       .  A
C678        H683   1.085       .  S
C679        C680   1.406       .  A
C679        C686   1.442       .  S
C680        C681   1.398       .  A
C681        C682   1.396       .  A
C681        H684   1.086       .  S
C682        C685   1.443       .  S
C685        N687   1.157       .  T
C686        N688   1.157       .  T
C689        C690   1.409       .  A
C689        C694   1.410       .  A
C690        C691   1.399       .  A
C690        H695   1.085       .  S
C691        C692   1.412   1_455  A
C691        C698   1.445       .  S
C692       C1482   1.487       .  S
C692        C693   1.410   1_655  A
C693        C694   1.398       .  A
C693       H1624   1.085   1_455  S
C694        C697   1.444       .  S
H696       C1621   1.085       .  S
C697        N699   1.157       .  T
C698        N700   1.157       .  T
C701        C702   1.409       .  A
C701        C706   1.421       .  A
C702        C703   1.411       .  A
C702        H707   1.085       .  S
C703        C704   1.418       .  A
C704        C705   1.407       .  A
C705        C706   1.404       .  A
C705        H708   1.085       .  S
C706        C709   1.445       .  S
C709        N711   1.158       .  T
C710        N712   1.158       .  T
C713        C714   1.408       .  A
C713        C718   1.425       .  A
C714        C715   1.406       .  A
C714        H719   1.084       .  S
C715        C716   1.411       .  A
C715        C722   1.444       .  S
C716        C717   1.394       .  A
C717        C718   1.399       .  A
C717        H720   1.086       .  S
C718        C721   1.444       .  S
C722        N724   1.157       .  T
C725        C726   1.396       .  A
C725        C730   1.413       .  A
C726        C727   1.402       .  A
C726        H731   1.085       .  S
C727        C728   1.424       .  A
C727        C734   1.444       .  S
C728        C729   1.407       .  A
C729        C730   1.407       .  A
C729        H732   1.084       .  S
C730        C733   1.444       .  S
C733        N735   1.157       .  T
C734        N736   1.157       .  T
C737        C738   1.403       .  A
C737        C742   1.410       .  A
C738        C739   1.400       .  A
C738        H743   1.083       .  S
C739        C740   1.408       .  A
C739        C746   1.445       .  S
C740        C741   1.404       .  A
C741        C742   1.403       .  A
C741        H744   1.085       .  S
C742        C745   1.445       .  S
C745        N747   1.157       .  T
C746        N748   1.157       .  T
C749        C750   1.393   1_545  A
C749        C754   1.428       .  A
C750        C751   1.399       .  A
C750        H755   1.085       .  S
C751        C752   1.427       .  A
C751        C758   1.445       .  S
C752        C753   1.392   1_565  A
C753        C754   1.399       .  A
C753        H756   1.085       .  S
C754        C757   1.445       .  S
C757        N759   1.157       .  T
C758        N760   1.157       .  T
C761        C762   1.406       .  A
C761        C766   1.420       .  A
C762        C763   1.403       .  A
C762        H767   1.084       .  S
C763        C764   1.419       .  A
C763        C770   1.445       .  S
C764        C765   1.405       .  A
C765        C766   1.402       .  A
C765        H768   1.084       .  S
C766        C769   1.445       .  S
C769        N771   1.157       .  T
C770        N772   1.157       .  T
C773        C774   1.407       .  A
C773        C778   1.404       .  A
C774        C775   1.410       .  A
C774        H779   1.085       .  S
C775        C776   1.415       .  A
C775        C782   1.442       .  S
C776        C777   1.415       .  A
C777        C778   1.400       .  A
C777        H780   1.085       .  S
C778        C781   1.444   1_565  S
C781        N783   1.157       .  T
C782        N784   1.157       .  T
C785        C786   1.397       .  A
C785        C790   1.412       .  A
C786        C787   1.401       .  A
C786        H791   1.085   1_545  S
C787        C788   1.423       .  A
C787        C794   1.446       .  S
C788        C789   1.406       .  A
C789        C790   1.405       .  A
C789        H792   1.084       .  S
C790        C793   1.443       .  S
C793        N795   1.157       .  T
C794        N796   1.158       .  T
C797        C798   1.403       .  A
C797       C1266   1.413   1_556  A
C798        C799   1.405       .  A
C798        H803   1.085       .  S
C799       C1728   1.414       .  A
C799        C806   1.444       .  S
C800       C1727   1.414   1_455  A
C800        C801   1.401       .  A
C801        H804   1.084   1_556  S
C802       C1261   1.412       .  A
C802        C805   1.444       .  S
C805        N807   1.157       .  T
C806        N808   1.157       .  T
C809        C810   1.398       .  A
C809        C814   1.408       .  A
C810        C811   1.398       .  A
C810        H815   1.088       .  S
C811        C812   1.414       .  A
C811       C1746   1.444       .  S
C812       C1416   1.471       .  S
C812        C813   1.403       .  A
C813        C814   1.393       .  A
C813        H816   1.088       .  S
C814        C817   1.445       .  S
C817        N819   1.157       .  T
C818       C1739   1.444   1_455  S
C818        N820   1.157       .  T
C821        C822   1.412       .  A
C821        C826   1.412       .  A
C822        C823   1.397       .  A
C822        H827   1.084       .  S
C823        C824   1.408       .  A
C823        C830   1.444       .  S
C824        C825   1.409       .  A
C825        C826   1.400       .  A
C825        H828   1.085       .  S
C826        C829   1.444       .  S
C829        N831   1.157       .  T
C830        N832   1.157       .  T
C833        C834   1.403       .  A
C833        C838   1.419       .  A
C834        C835   1.402       .  A
C834        H839   1.085       .  S
C835        C836   1.413       .  A
C835        C842   1.443       .  S
C836        C837   1.400       .  A
C837        C838   1.406       .  A
C837        H840   1.085       .  S
C841        N843   1.157       .  T
C842        N844   1.157       .  T
C845        C846   1.412       .  A
C845        C850   1.418       .  A
C846        C847   1.401       .  A
C846        H851   1.084       .  S
C847        C848   1.403       .  A
C847        C854   1.443       .  S
C848        C849   1.403       .  A
C849        C850   1.405       .  A
C849        H852   1.086       .  S
C850        C853   1.444       .  S
C853        N855   1.158       .  T
C854        N856   1.157       .  T
C857        C858   1.392       .  A
C857        C862   1.414       .  A
C858        C859   1.396       .  A
C858        H863   1.085       .  S
C859        C860   1.423       .  A
C859        C866   1.444       .  S
C860        C861   1.400       .  A
C861        C862   1.398       .  A
C861        H864   1.085       .  S
C862        C865   1.445       .  S
C865        N867   1.157       .  T
C866        N868   1.157       .  T
C869        C870   1.400       .  A
C869        C874   1.421       .  A
C870        C871   1.394       .  A
C870        H875   1.083       .  S
C871        C872   1.412       .  A
C871       C1806   1.445       .  S
C872       C1394   1.460       .  S
C872        C873   1.394       .  A
C873        C874   1.396       .  A
C873        H876   1.085       .  S
C874        C877   1.445       .  S
C877        N879   1.157       .  T
C878       C1799   1.445   1_455  S
C878        N880   1.157   1_565  T
C881        C882   1.408       .  A
C881        C886   1.420       .  A
C882        C883   1.407       .  A
C882        H887   1.085       .  S
C883        C884   1.418       .  A
C883        C890   1.444       .  S
C884        C885   1.406       .  A
C885        C886   1.401       .  A
C885        H888   1.085       .  S
C886        C889   1.445       .  S
C889        N891   1.157       .  T
C890        N892   1.157       .  T
C893        C894   1.408       .  A
C893        C898   1.405       .  A
C894        C895   1.413       .  A
C894        H899   1.085       .  S
C895        C896   1.417       .  A
C895        C902   1.442       .  S
C896        C897   1.414       .  A
C897        C898   1.397       .  A
C897        H900   1.084       .  S
C898        C901   1.445   1_545  S
C901        N903   1.157       .  T
C902        N904   1.157       .  T
C905        C906   1.414       .  A
C905        C910   1.417       .  A
C906        C907   1.400       .  A
C907        C908   1.405       .  A
C907        C914   1.444   1_565  S
C908        C909   1.407       .  A
C909        C910   1.412       .  A
C909        H912   1.084       .  S
C910        C913   1.443       .  S
C913        N915   1.157       .  T
C914        N916   1.157       .  T
C917       C1846   1.415   1_455  A
C917        C922   1.408   1_565  A
C918       C1845   1.415       .  A
C918        C919   1.403       .  A
C918        H923   1.084       .  S
C919        C926   1.444       .  S
C920       C1849   1.414       .  A
C921       C1848   1.415   1_455  A
C921        H924   1.085       .  S
C925        N927   1.157       .  T
C926        N928   1.157       .  T
O929        C944   1.280       .  A
O929       Al937   1.963       .  S
C930        O940   1.272       .  A
C930        O931   1.259       .  A
O931       Al933   1.868       .  S
O932        C934   1.260       .  A
O932       Al933   1.919       .  S
Al933       O941   1.932       .  S
Al933       O943   1.857       .  S
Al933       O942   1.773       .  S
C934        O947   1.256       .  A
C934       C1357   1.487   1_565  S
O935        C945   1.278       .  A
O935       Al937   1.977       .  S
O936        C949   1.267       .  A
O936       Al946   1.958       .  S
Al937       O950   1.871       .  S
Al937       O947   1.908       .  S
Al937       O942   1.769       .  S
O938        C945   1.252       .  A
O938       Al946   1.842       .  S
O939        C948   1.266       .  A
O939       Al946   1.912       .  S
O940       Al946   1.946       .  S
O941        C948   1.266       .  A
O942       Al946   1.781       .  S
O943        C944   1.260       .  A
C944       C1324   1.482       .  S
C945       C1381   1.484       .  S
C948       C1345   1.497       .  S
C949        O950   1.252       .  A
C949       C1833   1.500       .  S
O951        C966   1.251       .  A
O951       Al959   1.872       .  S
C952        O962   1.259       .  A
C952        O953   1.268       .  A
O953       Al955   1.926       .  S
O954        C956   1.255       .  A
O954       Al955   1.863       .  S
Al955       O963   1.900       .  S
Al955       O965   1.948       .  S
Al955       O964   1.775       .  S
C956        O969   1.277       .  A
C956       C1264   1.478       .  S
O957        C967   1.254       .  A
O957       Al959   1.887       .  S
O958        C971   1.258       .  A
O958       Al968   1.852       .  S
Al959       O972   1.955       .  S
Al959       O969   1.981       .  S
Al959       O964   1.767       .  S
O960        C967   1.265       .  A
O960       Al968   1.937       .  S
O961        C970   1.272       .  A
O961       Al968   1.946       .  S
O962       Al968   1.871       .  S
O963        C970   1.265       .  A
O964       Al968   1.773       .  S
O965        C966   1.266       .  A
C966       C1761   1.489       .  S
C967       C1312   1.476       .  S
C970       C1348   1.497       .  S
C971        O972   1.275       .  A
C971       C1285   1.487       .  S
O973        C988   1.247       .  A
O973       Al981   1.858       .  S
C974        O984   1.259       .  A
C974        O975   1.276       .  A
C974       C1321   1.470       .  S
O975       Al977   1.961       .  S
O976        C978   1.249       .  A
O976       Al977   1.830       .  S
Al977       O985   1.895       .  S
Al977       O987   1.990       .  S
Al977       O986   1.777       .  S
C978        O991   1.280       .  A
C978       C1216   1.479       .  S
O979        C989   1.257       .  A
O979       Al981   1.894       .  S
O980        C993   1.259       .  A
O980       Al990   1.854       .  S
Al981       O994   1.954       .  S
Al981       O991   1.995       .  S
Al981       O986   1.759       .  S
O982        C989   1.265       .  A
O982       Al990   1.940       .  S
O983        C992   1.273       .  A
O983       Al990   1.954       .  S
O984       Al990   1.865       .  S
O985        C992   1.262       .  A
O986       Al990   1.770       .  S
O987        C988   1.271       .  A
C988       C1240   1.503       .  S
C989       C1249   1.480   1_565  S
C992       C1225   1.499       .  S
C993        O994   1.277       .  A
C993       C1333   1.479       .  S
O995       C1010   1.273       .  A
O995      Al1003   1.942       .  S
C996       O1006   1.273       .  A
C996        O997   1.257       .  A
C996       C1288   1.477       .  S
O997       Al999   1.859       .  S
O998       C1000   1.259       .  A
O998       Al999   1.908       .  S
Al999      O1007   1.931       .  S
Al999      O1009   1.849       .  S
Al999      O1008   1.775       .  S
C1000      O1013   1.256       .  A
C1000      C1180   1.473       .  S
O1001      C1011   1.274       .  A
O1001     Al1003   1.964       .  S
O1002      C1015   1.269       .  A
O1002     Al1012   1.962       .  S
Al1003     O1016   1.872       .  S
Al1003     O1013   1.897       .  S
Al1003     O1008   1.774       .  S
O1004      C1011   1.253       .  A
O1004     Al1012   1.851       .  S
O1005      C1014   1.267       .  A
O1005     Al1012   1.914       .  S
O1006     Al1012   1.951       .  S
O1007      C1014   1.266       .  A
O1008     Al1012   1.780       .  S
O1009      C1010   1.258       .  A
C1010      C1273   1.456       .  S
C1011      C1204   1.467       .  S
C1014      C1228   1.499       .  S
C1015      O1016   1.251       .  A
C1015      C1192   1.496       .  S
O1017      C1032   1.273       .  A
O1017     Al1025   1.946       .  S
C1018      O1028   1.271       .  A
C1018      O1019   1.261       .  A
O1019     Al1021   1.874       .  S
O1020      C1022   1.264       .  A
O1020     Al1021   1.937       .  S
Al1021     O1029   1.942       .  S
Al1021     O1031   1.859       .  S
Al1021     O1030   1.771       .  S
C1022      O1035   1.256       .  A
C1022      C1189   1.482       .  S
O1023      C1033   1.277       .  A
O1023     Al1025   1.981       .  S
O1024      C1037   1.268       .  A
O1024     Al1498   1.973       .  S
Al1025     O1502   1.861       .  S
Al1025     O1035   1.896       .  S
Al1025     O1030   1.768       .  S
O1026      C1033   1.253       .  A
O1026     Al1034   1.850       .  S
O1027      C1036   1.269       .  A
O1027     Al1034   1.917       .  S
O1028     Al1034   1.941       .  S
O1029      C1036   1.270       .  A
O1030     Al1034   1.782       .  S
O1031      C1032   1.258       .  A
C1032      C1144   1.464       .  S
C1033      C1725   1.474   1_554  S
Al1034     O1488   1.972   1_554  S
C1036      C1165   1.504       .  S
C1037      O1038   1.244       .  A
C1037      C1177   1.498       .  S
O1038     Al1489   1.859       .  S
O1039      C1518   1.248   1_554  A
O1039     Al1047   1.854       .  S
C1040      O1050   1.258       .  A
C1040      O1041   1.272       .  A
O1041     Al1043   1.943       .  S
O1042      C1044   1.251       .  A
O1042     Al1043   1.847       .  S
Al1043     O1051   1.907       .  S
Al1043     O1517   1.964   1_554  S
Al1043     O1052   1.780       .  S
C1044      O1057   1.280       .  A
C1044      C1384   1.491       .  S
O1045      C1055   1.257       .  A
O1045     Al1047   1.897       .  S
O1046      C1059   1.259       .  A
O1046     Al1056   1.856       .  S
Al1047     O1060   1.963       .  S
Al1047     O1057   1.993       .  S
Al1047     O1052   1.766       .  S
O1048      C1055   1.265       .  A
O1048     Al1056   1.936       .  S
O1049      C1058   1.271       .  A
O1049     Al1056   1.949       .  S
O1050     Al1056   1.862       .  S
O1051      C1058   1.263       .  A
O1052     Al1056   1.771       .  S
O1053      C1054   1.269       .  A
O1053     Al1507   1.967       .  S
C1054      O1503   1.248       .  A
C1054      C1252   1.496       .  S
C1055      C1237   1.486   1_545  S
C1058      C1168   1.503       .  S
C1059      O1060   1.279       .  A
C1059      C1132   1.481       .  S
O1061      C1076   1.250       .  A
O1061     Al1069   1.871       .  S
C1062      O1072   1.262       .  A
C1062      O1063   1.268       .  A
C1062      C1141   1.479       .  S
O1063     Al1065   1.935       .  S
O1064      C1066   1.252       .  A
O1064     Al1065   1.847       .  S
Al1065     O1073   1.906       .  S
Al1065     O1075   1.948       .  S
Al1065     O1074   1.780       .  S
C1066      O1079   1.274       .  A
C1066      C1201   1.465       .  S
O1067      C1077   1.254       .  A
O1067     Al1069   1.890       .  S
O1068      C1081   1.260       .  A
O1068     Al1078   1.861       .  S
Al1069     O1082   1.939       .  S
Al1069     O1079   1.965       .  S
Al1069     O1074   1.770       .  S
O1070      C1077   1.262       .  A
O1070     Al1078   1.927       .  S
O1071      C1080   1.271       .  A
O1071     Al1078   1.936       .  S
O1072     Al1078   1.884       .  S
O1073      C1080   1.266       .  A
O1074     Al1078   1.771       .  S
O1075      C1076   1.264       .  A
C1076      C1309   1.494       .  S
C1077      C1300   1.476       .  S
C1080      C1108   1.497       .  S
C1081      O1082   1.272       .  A
C1081      C1153   1.479       .  S
O1083      C1098   1.277       .  A
O1083     Al1091   1.953       .  S
C1084      O1094   1.275       .  A
C1084      O1085   1.259       .  A
C1084      C1129   1.467       .  S
O1085     Al1087   1.863       .  S
O1086      C1088   1.263       .  A
O1086     Al1087   1.932       .  S
Al1087     O1095   1.938       .  S
Al1087     O1097   1.856       .  S
Al1087     O1096   1.769       .  S
C1088      O1101   1.258       .  A
C1088      C1372   1.487   1_545  S
O1089      C1099   1.280       .  A
O1089     Al1091   1.990       .  S
O1090      C1103   1.269       .  A
O1090     Al1100   1.979       .  S
Al1091     O1104   1.866       .  S
Al1091     O1101   1.906       .  S
Al1091     O1096   1.762       .  S
O1092      C1099   1.249       .  A
O1092     Al1100   1.829       .  S
O1093      C1102   1.265       .  A
O1093     Al1100   1.905       .  S
O1094     Al1100   1.961       .  S
O1095      C1102   1.269       .  A
O1096     Al1100   1.782       .  S
O1097      C1098   1.259       .  A
C1098      C1120   1.477       .  S
C1099      C1213   1.478       .  S
C1102      C1105   1.498       .  S
C1103      O1104   1.248       .  A
C1103      C1360   1.503       .  S
C1105      C1106   1.409       .  A
C1105      C1110   1.418       .  A
C1106      C1107   1.406       .  A
C1106      H1111   1.084       .  S
C1107      C1108   1.417       .  A
C1107      C1114   1.444       .  S
C1108      C1109   1.407       .  A
C1109      C1110   1.400       .  A
C1109      H1112   1.085       .  S
C1110      C1113   1.445       .  S
C1113      N1115   1.157       .  T
C1114      N1116   1.157       .  T
C1117      C1118   1.395       .  A
C1117      C1122   1.412       .  A
C1118      C1119   1.398       .  A
C1118      H1123   1.085       .  S
C1119      C1120   1.421       .  A
C1119      C1126   1.444       .  S
C1120      C1121   1.400       .  A
C1121      C1122   1.395       .  A
C1121      H1124   1.085       .  S
C1125      N1127   1.157       .  T
C1126      N1128   1.157       .  T
C1129      C1130   1.395       .  A
C1129      C1134   1.413       .  A
C1130      C1131   1.400       .  A
C1130      H1135   1.085       .  S
C1131      C1132   1.422       .  A
C1131      C1138   1.445       .  S
C1132      C1133   1.401       .  A
C1133      C1134   1.398       .  A
C1133      H1136   1.085       .  S
C1134      C1137   1.445       .  S
C1137      N1139   1.157       .  T
C1138      N1140   1.157       .  T
C1141      C1142   1.407       .  A
C1141      C1146   1.416       .  A
C1142      C1143   1.400       .  A
C1142      H1147   1.085       .  S
C1143      C1144   1.406       .  A
C1143      C1150   1.442       .  S
C1144      C1145   1.399       .  A
C1145      C1146   1.395       .  A
C1145      H1148   1.086       .  S
C1146      C1149   1.444       .  S
C1149      N1151   1.157       .  T
C1150      N1152   1.157       .  T
C1153      C1154   1.406       .  A
C1153      C1158   1.410       .  A
C1154      C1155   1.394       .  A
C1154      H1159   1.085       .  S
C1155      C1156   1.413       .  A
C1155      C1162   1.445       .  S
C1156      C1157   1.409       .  A
C1157      C1158   1.398       .  A
C1158      C1161   1.443       .  S
C1161      N1163   1.157       .  T
C1162      N1164   1.157       .  T
C1165      C1166   1.409       .  A
C1165      C1170   1.420       .  A
C1166      C1167   1.409       .  A
C1166      H1171   1.085       .  S
C1167      C1168   1.420       .  A
C1167      C1638   1.444   1_554  S
C1168      C1169   1.406       .  A
C1169      C1170   1.403       .  A
C1169      H1172   1.085       .  S
C1170      C1173   1.444       .  S
C1173      N1175   1.157       .  T
C1174      C1631   1.444       .  S
C1174      N1176   1.157       .  T
C1177      C1178   1.408       .  A
C1177      C1182   1.430       .  A
C1178      C1179   1.408       .  A
C1178      H1183   1.084       .  S
C1179      C1180   1.411       .  A
C1179      C1186   1.444       .  S
C1180      C1181   1.392       .  A
C1181      C1182   1.394       .  A
C1181      H1184   1.086       .  S
C1182      C1185   1.446       .  S
C1185      N1651   1.158       .  T
C1186      N1188   1.157       .  T
N1187      C1649   1.158       .  T
C1189      C1190   1.397       .  A
C1189      C1194   1.413       .  A
C1190      C1191   1.404       .  A
C1190      H1195   1.085       .  S
C1191      C1192   1.421       .  A
C1191      C1198   1.442       .  S
C1192      C1193   1.406       .  A
C1193      C1194   1.407       .  A
C1193      H1196   1.085       .  S
C1194      C1197   1.444       .  S
C1197      N1199   1.157       .  T
C1198      N1200   1.157       .  T
C1201      C1202   1.401       .  A
C1201      C1206   1.411       .  A
C1202      C1203   1.399       .  A
C1202      H1207   1.085       .  S
C1203      C1204   1.409       .  A
C1203      C1210   1.443       .  S
C1204      C1205   1.403       .  A
C1205      C1206   1.402       .  A
C1205      H1208   1.085       .  S
C1206      C1209   1.445       .  S
C1209      N1211   1.157       .  T
C1210      N1212   1.157       .  T
C1213      C1214   1.393   1_545  A
C1213      C1218   1.424       .  A
C1214      C1215   1.400       .  A
C1214      H1219   1.085       .  S
C1215      C1216   1.423       .  A
C1215      C1222   1.444       .  S
C1216      C1217   1.394   1_565  A
C1217      C1218   1.402       .  A
C1217      H1220   1.085       .  S
C1218      C1221   1.444       .  S
C1221      N1223   1.157       .  T
C1222      N1224   1.157       .  T
C1225      C1226   1.406       .  A
C1225      C1230   1.420       .  A
C1226      C1227   1.404       .  A
C1226      H1231   1.084       .  S
C1227      C1228   1.419       .  A
C1227      C1234   1.445       .  S
C1228      C1229   1.406       .  A
C1229      C1230   1.404       .  A
C1229      H1232   1.084       .  S
C1230      C1233   1.444       .  S
C1233      N1235   1.157       .  T
C1234      N1236   1.158       .  T
C1237      C1238   1.410       .  A
C1237      C1242   1.404   1_565  A
C1238      C1239   1.413       .  A
C1238      H1243   1.084       .  S
C1239      C1240   1.413       .  A
C1239      C1246   1.441       .  S
C1240      C1241   1.416       .  A
C1241      C1242   1.398   1_565  A
C1241      H1244   1.084       .  S
C1242      C1245   1.445       .  S
C1245      N1247   1.157       .  T
C1246      N1248   1.157       .  T
C1249      C1250   1.396       .  A
C1249      C1254   1.413       .  A
C1250      C1251   1.402       .  A
C1250      H1255   1.085       .  S
C1251      C1252   1.425       .  A
C1251      C1258   1.445       .  S
C1252      C1253   1.405       .  A
C1253      C1254   1.406       .  A
C1253      H1256   1.084       .  S
C1254      C1257   1.443       .  S
C1257      N1259   1.157       .  T
C1258      N1260   1.157       .  T
C1261      C1497   1.472       .  S
C1261      C1262   1.403       .  A
C1262      C1263   1.404       .  A
C1262      H1267   1.085       .  S
C1263      C1270   1.444       .  S
C1264      C1265   1.402       .  A
C1265      C1730   1.404       .  A
C1265      H1268   1.084       .  S
C1266      C1729   1.405   1_554  A
C1266      C1269   1.443       .  S
C1269      N1271   1.157       .  T
C1270      N1272   1.157       .  T
C1273      C1274   1.395       .  A
C1273      C1278   1.408       .  A
C1274      C1275   1.396       .  A
C1274      H1279   1.091       .  S
C1275      C1276   1.414   1_655  A
C1276      C1277   1.403   1_455  A
C1277      C1278   1.393       .  A
C1277      H1280   1.089       .  S
C1278      C1281   1.446       .  S
C1281      N1283   1.157       .  T
C1282      N1284   1.157       .  T
C1285      C1286   1.414       .  A
C1285      C1290   1.411       .  A
C1286      C1287   1.397       .  A
C1286      H1291   1.084       .  S
C1287      C1288   1.405       .  A
C1287      C1294   1.445       .  S
C1288      C1289   1.408       .  A
C1289      C1290   1.398       .  A
C1289      H1292   1.085       .  S
C1290      C1293   1.444       .  S
C1293      N1295   1.157       .  T
C1294      N1296   1.157       .  T
C1297      C1430   1.493   1_554  S
C1297      C1298   1.406       .  A
C1297      C1302   1.422       .  A
C1298      C1299   1.404       .  A
C1298      H1303   1.085       .  S
C1299      C1300   1.412       .  A
C1299      C1306   1.444       .  S
C1300      C1301   1.397       .  A
C1301      C1302   1.403       .  A
C1301      H1304   1.085       .  S
C1302      C1769   1.444   1_554  S
C1305      C1766   1.444       .  S
C1305      N1307   1.157       .  T
C1306      N1308   1.157       .  T
C1309      C1310   1.411       .  A
C1309      C1314   1.416       .  A
C1310      C1311   1.400       .  A
C1310      H1315   1.082       .  S
C1311      C1312   1.403       .  A
C1311      C1318   1.442       .  S
C1312      C1313   1.405       .  A
C1313      C1314   1.406       .  A
C1313      H1316   1.085       .  S
C1314      C1317   1.443       .  S
C1317      N1319   1.157       .  T
C1318      N1320   1.157       .  T
C1321      C1322   1.395       .  A
C1321      C1326   1.415       .  A
C1322      C1323   1.400       .  A
C1322      H1327   1.085       .  S
C1323      C1324   1.422       .  A
C1323      C1330   1.444       .  S
C1324      C1325   1.400       .  A
C1325      C1326   1.398       .  A
C1325      H1328   1.085       .  S
C1326      C1329   1.444       .  S
C1329      N1331   1.157       .  T
C1330      N1332   1.157       .  T
C1333      C1334   1.401       .  A
C1333      C1338   1.421       .  A
C1334      C1335   1.395       .  A
C1334      H1339   1.080       .  S
C1335      C1336   1.411   1_655  A
C1336      C1337   1.394   1_455  A
C1337      C1338   1.396       .  A
C1337      H1340   1.085       .  S
C1338      C1341   1.444       .  S
C1341      N1343   1.157       .  T
C1342      N1344   1.157       .  T
C1345      C1346   1.406       .  A
C1345      C1350   1.419       .  A
C1346      C1347   1.405       .  A
C1346      H1351   1.085       .  S
C1347      C1348   1.419       .  A
C1347      C1354   1.444       .  S
C1348      C1349   1.406       .  A
C1349      C1350   1.402       .  A
C1349      H1352   1.085       .  S
C1350      C1353   1.445       .  S
C1353      N1355   1.157       .  T
C1354      N1356   1.157       .  T
C1357      C1358   1.409       .  A
C1357      C1362   1.407       .  A
C1358      C1359   1.414       .  A
C1358      H1363   1.084       .  S
C1359      C1360   1.414       .  A
C1359      C1366   1.441       .  S
C1360      C1361   1.414       .  A
C1361      C1362   1.397       .  A
C1361      H1364   1.084       .  S
C1362      C1365   1.446   1_545  S
C1365      N1367   1.157       .  T
C1366      N1368   1.157       .  T
C1369      C1413   1.505   1_554  S
C1369      C1370   1.414       .  A
C1369      C1374   1.417       .  A
C1370      C1371   1.401       .  A
C1370      H1839   1.084   1_554  S
C1371      C1372   1.405       .  A
C1371      C1378   1.444   1_565  S
C1372      C1373   1.408       .  A
C1373      C1374   1.413       .  A
C1373      H1376   1.084       .  S
C1374      C1377   1.442       .  S
H1375      C1834   1.084       .  S
C1377      N1379   1.157       .  T
C1378      N1380   1.157       .  T
C1381      C1386   1.406   1_565  A
C1382      C1383   1.403       .  A
C1382      H1387   1.085       .  S
C1383      C1848   1.407   1_565  A
C1383      C1390   1.444       .  S
C1384      C1847   1.407   1_544  A
C1385      C1850   1.402   1_554  A
C1385      H1388   1.084       .  S
C1386      C1849   1.401       .  A
C1386      C1853   1.445       .  S
C1389      C1850   1.444   1_554  S
C1389      N1391   1.157       .  T
C1390      N1392   1.157       .  T
O1393      C1408   1.280       .  A
O1393     Al1401   1.961       .  S
C1394      O1404   1.273       .  A
C1394      O1395   1.259       .  A
O1395     Al1397   1.862       .  S
O1396      C1398   1.260       .  A
O1396     Al1397   1.925       .  S
Al1397     O1405   1.928       .  S
Al1397     O1407   1.854       .  S
Al1397     O1406   1.773       .  S
C1398      O1411   1.256       .  A
C1398      C1821   1.487   1_565  S
O1399      C1409   1.279       .  A
O1399     Al1401   1.983       .  S
O1400      C1413   1.268       .  A
O1400     Al1410   1.969       .  S
Al1401     O1414   1.864       .  S
Al1401     O1411   1.905       .  S
Al1401     O1406   1.765       .  S
O1402      C1409   1.251       .  A
O1402     Al1410   1.837       .  S
O1403      C1412   1.267       .  A
O1403     Al1410   1.916       .  S
O1404     Al1410   1.947       .  S
O1405      C1412   1.266       .  A
O1406     Al1410   1.783       .  S
O1407      C1408   1.259       .  A
C1408      C1788   1.482       .  S
C1409      C1845   1.486       .  S
C1412      C1809   1.499       .  S
C1413      O1414   1.250       .  A
O1415      C1430   1.251       .  A
O1415     Al1423   1.872       .  S
C1416      O1426   1.260       .  A
C1416      O1417   1.270       .  A
O1417     Al1419   1.935       .  S
O1418      C1420   1.252       .  A
O1418     Al1419   1.851       .  S
Al1419     O1427   1.900       .  S
Al1419     O1429   1.951       .  S
Al1419     O1428   1.778       .  S
C1420      O1433   1.278       .  A
C1420      C1728   1.476       .  S
O1421      C1431   1.256       .  A
O1421     Al1423   1.893       .  S
O1422      C1435   1.259       .  A
O1422     Al1432   1.855       .  S
Al1423     O1436   1.960       .  S
Al1423     O1433   1.984       .  S
Al1423     O1428   1.769       .  S
O1424      C1431   1.264       .  A
O1424     Al1432   1.937       .  S
O1425      C1434   1.272       .  A
O1425     Al1432   1.945       .  S
O1426     Al1432   1.872       .  S
O1427      C1434   1.263       .  A
O1428     Al1432   1.772       .  S
O1429      C1430   1.267       .  A
C1431      C1776   1.481       .  S
C1434      C1812   1.498       .  S
C1435      O1436   1.276       .  A
C1435      C1749   1.489       .  S
O1437      C1452   1.247       .  A
O1437     Al1445   1.856       .  S
C1438      O1448   1.260       .  A
C1438      O1439   1.274       .  A
C1438      C1785   1.470       .  S
O1439     Al1441   1.955       .  S
O1440      C1442   1.246       .  A
O1440     Al1441   1.822       .  S
Al1441     O1449   1.886       .  S
Al1441     O1451   1.987       .  S
Al1441     O1450   1.770       .  S
C1442      O1455   1.280       .  A
C1442      C1680   1.480       .  S
O1443      C1453   1.256       .  A
O1443     Al1445   1.885       .  S
O1444      C1457   1.259       .  A
O1444     Al1454   1.855       .  S
Al1445     O1458   1.952       .  S
Al1445     O1455   1.995       .  S
Al1445     O1450   1.759       .  S
O1446      C1453   1.266       .  A
O1446     Al1454   1.943       .  S
O1447      C1456   1.273       .  A
O1447     Al1454   1.957       .  S
O1448     Al1454   1.870       .  S
O1449      C1456   1.261       .  A
O1450     Al1454   1.768       .  S
O1451      C1452   1.271       .  A
C1452      C1704   1.502       .  S
C1453      C1713   1.476   1_565  S
C1456      C1689   1.491       .  S
C1457      O1458   1.276       .  A
C1457      C1797   1.476       .  S
O1459      C1474   1.275       .  A
O1459     Al1467   1.950       .  S
C1460      O1470   1.273       .  A
C1460      O1461   1.259       .  A
C1460      C1752   1.481       .  S
O1461     Al1463   1.867       .  S
O1462      C1464   1.260       .  A
O1462     Al1463   1.913       .  S
Al1463     O1471   1.932       .  S
Al1463     O1473   1.856       .  S
Al1463     O1472   1.774       .  S
C1464      O1477   1.256       .  A
C1464      C1644   1.477       .  S
O1465      C1475   1.278       .  A
O1465     Al1467   1.977       .  S
O1466      C1479   1.267       .  A
O1466     Al1476   1.962       .  S
Al1467     O1480   1.865       .  S
Al1467     O1477   1.898       .  S
Al1467     O1472   1.768       .  S
O1468      C1475   1.251       .  A
O1468     Al1476   1.832       .  S
O1469      C1478   1.265       .  A
O1469     Al1476   1.902       .  S
O1470     Al1476   1.950       .  S
O1471      C1478   1.267       .  A
O1472     Al1476   1.783       .  S
O1473      C1474   1.259       .  A
C1474      C1737   1.464       .  S
C1475      C1668   1.474       .  S
C1478      C1692   1.488       .  S
C1479      O1480   1.248       .  A
C1479      C1656   1.498       .  S
O1481      C1496   1.271       .  A
O1481     Al1489   1.942       .  S
C1482      O1492   1.272       .  A
C1482      O1483   1.260       .  A
O1483     Al1485   1.869       .  S
O1484      C1486   1.264       .  A
O1484     Al1485   1.934       .  S
Al1485     O1493   1.938       .  S
Al1485     O1495   1.857       .  S
Al1485     O1494   1.770       .  S
C1486      O1499   1.256       .  A
C1486      C1653   1.481       .  S
O1487      C1497   1.277       .  A
O1487     Al1489   1.981       .  S
O1488      C1501   1.269       .  A
Al1489     O1499   1.893       .  S
Al1489     O1494   1.765       .  S
O1490      C1497   1.253       .  A
O1490     Al1498   1.848       .  S
O1491      C1500   1.267       .  A
O1491     Al1498   1.909       .  S
O1492     Al1498   1.946       .  S
O1493      C1500   1.270       .  A
O1494     Al1498   1.783       .  S
O1495      C1496   1.257       .  A
C1496      C1608   1.463       .  S
C1500      C1629   1.494       .  S
C1501      O1502   1.246   1_556  A
C1501      C1641   1.501       .  S
O1503     Al1511   1.859       .  S
C1504      O1514   1.258       .  A
C1504      O1505   1.272       .  A
O1505     Al1507   1.947       .  S
O1506      C1508   1.251       .  A
O1506     Al1507   1.842       .  S
Al1507     O1515   1.898       .  S
Al1507     O1516   1.777       .  S
C1508      O1521   1.279       .  A
C1508      C1848   1.488       .  S
O1509      C1519   1.256       .  A
O1509     Al1511   1.890       .  S
O1510      C1523   1.259       .  A
O1510     Al1520   1.856       .  S
Al1511     O1524   1.957       .  S
Al1511     O1521   1.988       .  S
Al1511     O1516   1.764       .  S
O1512      C1519   1.265       .  A
O1512     Al1520   1.938       .  S
O1513      C1522   1.272       .  A
O1513     Al1520   1.952       .  S
O1514     Al1520   1.865       .  S
O1515      C1522   1.262       .  A
O1516     Al1520   1.772       .  S
O1517      C1518   1.269       .  A
C1518      C1716   1.493       .  S
C1519      C1701   1.481   1_545  S
C1522      C1632   1.497       .  S
C1523      O1524   1.277       .  A
C1523      C1596   1.475       .  S
O1525      C1540   1.250       .  A
O1525     Al1533   1.865       .  S
C1526      O1536   1.264       .  A
C1526      O1527   1.273       .  A
C1526      C1605   1.478       .  S
O1527     Al1529   1.942       .  S
O1528      C1530   1.251       .  A
O1528     Al1529   1.834       .  S
Al1529     O1537   1.906       .  S
Al1529     O1539   1.951       .  S
Al1529     O1538   1.778       .  S
C1530      O1543   1.276       .  A
C1530      C1665   1.476       .  S
O1531      C1541   1.253       .  A
O1531     Al1533   1.895       .  S
O1532      C1545   1.261       .  A
O1532     Al1542   1.848       .  S
Al1533     O1546   1.953       .  S
Al1533     O1543   1.968       .  S
Al1533     O1538   1.768       .  S
O1534      C1541   1.259       .  A
O1534     Al1542   1.927       .  S
O1535      C1544   1.267       .  A
O1535     Al1542   1.933       .  S
O1536     Al1542   1.877       .  S
O1537      C1544   1.264       .  A
O1538     Al1542   1.777       .  S
O1539      C1540   1.265       .  A
C1540      C1773   1.497       .  S
C1541      C1764   1.477       .  S
C1544      C1572   1.496       .  S
C1545      O1546   1.277       .  A
C1545      C1617   1.477       .  S
O1547      C1562   1.278       .  A
O1547     Al1555   1.953       .  S
C1548      O1558   1.274       .  A
C1548      O1549   1.260       .  A
C1548      C1593   1.464       .  S
O1549     Al1551   1.868       .  S
O1550      C1552   1.262       .  A
O1550     Al1551   1.931       .  S
Al1551     O1559   1.949       .  S
Al1551     O1561   1.849       .  S
Al1551     O1560   1.769       .  S
C1552      O1565   1.258       .  A
C1552      C1836   1.484   1_545  S
O1553      C1563   1.282       .  A
O1553     Al1555   1.991       .  S
O1554      C1567   1.268       .  A
O1554     Al1564   1.974       .  S
Al1555     O1568   1.868       .  S
Al1555     O1565   1.906       .  S
Al1555     O1560   1.762       .  S
O1556      C1563   1.248       .  A
O1556     Al1564   1.820       .  S
O1557      C1566   1.265       .  A
O1557     Al1564   1.896       .  S
O1558     Al1564   1.954       .  S
O1559      C1566   1.271       .  A
O1560     Al1564   1.778       .  S
O1561      C1562   1.259       .  A
C1562      C1584   1.474       .  S
C1563      C1677   1.480       .  S
C1566      C1569   1.497       .  S
C1567      O1568   1.248       .  A
C1567      C1824   1.504       .  S
C1569      C1570   1.408       .  A
C1569      C1574   1.417       .  A
C1570      C1571   1.403       .  A
C1570      H1575   1.084       .  S
C1571      C1572   1.416       .  A
C1571      C1578   1.444       .  S
C1572      C1573   1.408       .  A
C1573      C1574   1.402       .  A
C1573      H1576   1.084       .  S
C1574      C1577   1.445       .  S
C1577      N1579   1.157       .  T
C1578      N1580   1.157       .  T
C1581      C1582   1.392       .  A
C1581      C1586   1.413       .  A
C1582      C1583   1.395       .  A
C1582      H1587   1.086       .  S
C1583      C1584   1.421       .  A
C1583      C1590   1.444       .  S
C1584      C1585   1.399       .  A
C1585      C1586   1.395       .  A
C1585      H1588   1.085       .  S
C1589      N1591   1.157       .  T
C1590      N1592   1.157       .  T
C1593      C1594   1.395       .  A
C1593      C1598   1.412       .  A
C1594      C1595   1.398       .  A
C1594      H1599   1.085       .  S
C1595      C1596   1.419       .  A
C1595      C1602   1.444       .  S
C1596      C1597   1.400       .  A
C1597      C1598   1.396       .  A
C1597      H1600   1.085       .  S
C1598      C1601   1.444       .  S
C1601      N1603   1.157       .  T
C1602      N1604   1.157       .  T
C1605      C1606   1.407       .  A
C1605      C1610   1.415       .  A
C1606      C1607   1.399       .  A
C1606      H1611   1.085       .  S
C1607      C1608   1.406       .  A
C1607      C1614   1.442       .  S
C1608      C1609   1.399       .  A
C1609      C1610   1.394       .  A
C1609      H1612   1.086       .  S
C1610      C1613   1.443       .  S
C1613      N1615   1.157       .  T
C1614      N1616   1.157       .  T
C1617      C1618   1.407       .  A
C1617      C1622   1.408       .  A
C1618      C1619   1.392       .  A
C1618      H1623   1.085       .  S
C1619      C1620   1.411       .  A
C1619      C1626   1.445       .  S
C1620      C1621   1.411       .  A
C1621      C1622   1.398       .  A
C1622      C1625   1.444       .  S
C1625      N1627   1.157       .  T
C1626      N1628   1.157       .  T
C1629      C1630   1.405       .  A
C1629      C1634   1.416       .  A
C1630      C1631   1.405       .  A
C1630      H1635   1.085       .  S
C1631      C1632   1.419       .  A
C1632      C1633   1.406       .  A
C1633      C1634   1.403       .  A
C1633      H1636   1.085       .  S
C1634      C1637   1.444       .  S
C1637      N1639   1.157       .  T
C1638      N1640   1.158       .  T
C1641      C1642   1.409       .  A
C1641      C1646   1.429       .  A
C1642      C1643   1.409       .  A
C1642      H1647   1.084       .  S
C1643      C1644   1.412       .  A
C1643      C1650   1.444       .  S
C1644      C1645   1.393       .  A
C1645      C1646   1.397       .  A
C1645      H1648   1.086       .  S
C1646      C1649   1.445       .  S
C1650      N1652   1.157       .  T
C1653      C1654   1.396       .  A
C1653      C1658   1.413       .  A
C1654      C1655   1.403       .  A
C1654      H1659   1.085       .  S
C1655      C1656   1.424       .  A
C1655      C1662   1.444       .  S
C1656      C1657   1.407       .  A
C1657      C1658   1.407       .  A
C1657      H1660   1.085       .  S
C1658      C1661   1.444       .  S
C1661      N1663   1.157       .  T
C1662      N1664   1.157       .  T
C1665      C1666   1.412       .  A
C1665      C1670   1.404       .  A
C1666      C1667   1.398       .  A
C1666      H1671   1.084       .  S
C1667      C1668   1.402       .  A
C1667      C1674   1.443       .  S
C1668      C1669   1.413       .  A
C1669      C1670   1.401       .  A
C1669      H1672   1.085       .  S
C1670      C1673   1.444       .  S
C1673      N1675   1.157       .  T
C1674      N1676   1.157       .  T
C1677      C1678   1.391   1_545  A
C1677      C1682   1.428       .  A
C1678      C1679   1.396       .  A
C1678      H1683   1.085       .  S
C1679      C1680   1.428       .  A
C1679      C1686   1.445       .  S
C1680      C1681   1.393   1_565  A
C1681      C1682   1.399       .  A
C1681      H1684   1.085       .  S
C1682      C1685   1.446       .  S
C1685      N1687   1.157       .  T
C1686      N1688   1.157       .  T
C1689      C1690   1.405       .  A
C1689      C1694   1.419       .  A
C1690      C1691   1.403       .  A
C1690      H1695   1.084       .  S
C1691      C1692   1.416       .  A
C1691      C1698   1.444       .  S
C1692      C1693   1.403       .  A
C1693      C1694   1.401       .  A
C1693      H1696   1.084       .  S
C1694      C1697   1.445       .  S
C1697      N1699   1.158       .  T
C1698      N1700   1.157       .  T
C1701      C1702   1.408       .  A
C1701      C1706   1.403       .  A
C1702      C1703   1.410       .  A
C1702      H1707   1.085       .  S
C1703      C1704   1.414       .  A
C1703      C1710   1.442       .  S
C1704      C1705   1.417       .  A
C1705      C1706   1.399       .  A
C1705      H1708   1.084       .  S
C1706      C1709   1.445   1_565  S
C1709      N1711   1.157       .  T
C1710      N1712   1.157       .  T
C1713      C1714   1.396       .  A
C1713      C1718   1.413       .  A
C1714      C1715   1.400       .  A
C1714      H1719   1.084   1_545  S
C1715      C1716   1.424       .  A
C1715      C1722   1.446       .  S
C1716      C1717   1.405       .  A
C1717      C1718   1.405       .  A
C1717      H1720   1.084       .  S
C1718      C1721   1.443       .  S
C1721      N1723   1.157       .  T
C1722      N1724   1.158       .  T
C1725      C1726   1.402       .  A
C1726      C1727   1.404       .  A
C1726      H1731   1.085       .  S
C1727      C1734   1.444       .  S
C1728      C1729   1.403       .  A
C1729      H1732   1.085   1_556  S
C1730      C1733   1.443       .  S
C1733      N1735   1.157       .  T
C1734      N1736   1.157       .  T
C1737      C1738   1.399       .  A
C1737      C1742   1.410       .  A
C1738      C1739   1.400       .  A
C1738      H1743   1.086       .  S
C1739      C1740   1.415   1_655  A
C1740      C1741   1.402   1_455  A
C1741      C1742   1.394       .  A
C1741      H1744   1.087       .  S
C1742      C1745   1.445       .  S
C1745      N1747   1.157       .  T
C1746      N1748   1.157       .  T
C1749      C1750   1.413       .  A
C1749      C1754   1.411       .  A
C1750      C1751   1.397       .  A
C1750      H1755   1.084       .  S
C1751      C1752   1.407       .  A
C1751      C1758   1.445       .  S
C1752      C1753   1.409       .  A
C1753      C1754   1.400       .  A
C1753      H1756   1.085       .  S
C1754      C1757   1.444       .  S
C1757      N1759   1.157       .  T
C1758      N1760   1.157       .  T
C1761      C1762   1.404       .  A
C1761      C1766   1.420       .  A
C1762      C1763   1.402       .  A
C1762      H1767   1.084       .  S
C1763      C1764   1.412       .  A
C1763      C1770   1.443       .  S
C1764      C1765   1.399       .  A
C1765      C1766   1.404       .  A
C1765      H1768   1.085       .  S
C1769      N1771   1.157       .  T
C1770      N1772   1.157       .  T
C1773      C1774   1.412       .  A
C1773      C1778   1.417       .  A
C1774      C1775   1.401       .  A
C1774      H1779   1.084       .  S
C1775      C1776   1.403       .  A
C1775      C1782   1.443       .  S
C1776      C1777   1.406       .  A
C1777      C1778   1.409       .  A
C1777      H1780   1.086       .  S
C1778      C1781   1.444       .  S
C1781      N1783   1.157       .  T
C1782      N1784   1.157       .  T
C1785      C1786   1.395       .  A
C1785      C1790   1.414       .  A
C1786      C1787   1.400       .  A
C1786      H1791   1.085       .  S
C1787      C1788   1.423       .  A
C1787      C1794   1.444       .  S
C1788      C1789   1.399       .  A
C1789      C1790   1.396       .  A
C1789      H1792   1.085       .  S
C1790      C1793   1.443       .  S
C1793      N1795   1.157       .  T
C1794      N1796   1.157       .  T
C1797      C1798   1.400       .  A
C1797      C1802   1.420       .  A
C1798      C1799   1.395       .  A
C1798      H1803   1.083       .  S
C1799      C1800   1.411   1_655  A
C1800      C1801   1.394   1_455  A
C1801      C1802   1.396       .  A
C1801      H1804   1.085       .  S
C1802      C1805   1.444       .  S
C1805      N1807   1.157       .  T
C1806      N1808   1.157       .  T
C1809      C1810   1.407       .  A
C1809      C1814   1.420       .  A
C1810      C1811   1.407       .  A
C1810      H1815   1.085       .  S
C1811      C1812   1.419       .  A
C1811      C1818   1.444       .  S
C1812      C1813   1.405       .  A
C1813      C1814   1.400       .  A
C1813      H1816   1.085       .  S
C1814      C1817   1.445       .  S
C1817      N1819   1.157       .  T
C1818      N1820   1.157       .  T
C1821      C1822   1.408       .  A
C1821      C1826   1.406       .  A
C1822      C1823   1.412       .  A
C1822      H1827   1.084       .  S
C1823      C1824   1.416       .  A
C1823      C1830   1.442       .  S
C1824      C1825   1.415       .  A
C1825      C1826   1.400       .  A
C1825      H1828   1.084       .  S
C1826      C1829   1.445   1_545  S
C1829      N1831   1.157       .  T
C1830      N1832   1.157       .  T
C1833      C1834   1.412       .  A
C1833      C1838   1.417       .  A
C1834      C1835   1.403       .  A
C1835      C1836   1.405       .  A
C1835      C1842   1.443       .  S
C1836      C1837   1.406       .  A
C1837      C1838   1.410       .  A
C1837      H1840   1.084       .  S
C1838      C1841   1.444       .  S
C1841      N1843   1.157       .  T
C1842      N1844   1.157   1_565  T
C1845      C1850   1.405   1_565  A
C1846      C1847   1.405       .  A
C1846      H1851   1.085       .  S
C1847      C1854   1.444       .  S
C1849      H1852   1.084       .  S
C1853      N1855   1.157       .  T
C1854      N1856   1.157       .  T
