geometry optimzed in LAMMPS
_audit_creation_date              2020-11-30 
_audit_creation_method            'lammps2cif' 
_symmetry_space_group_name_H-M    'P1' 
_symmetry_Int_Tables_number       1 
_symmetry_cell_setting            triclinic 
loop_ 
_symmetry_equiv_pos_as_xyz 
  x,y,z 
_cell_length_a                    43.70198609 
_cell_length_b                    35.12375824692399 
_cell_length_c                    38.454532892710425 
_cell_angle_alpha                 89.79811382792084 
_cell_angle_beta                  90.04959548076238 
_cell_angle_gamma                 90.16798797666478 
loop_ 
_atom_site_label 
_atom_site_type_symbol 
_atom_site_fract_x 
_atom_site_fract_y 
_atom_site_fract_z 
_atom_site_charge 
O1          O  0.15155970  0.95653056  0.38866648    -0.82700
C2          C  0.03803903  0.89671303  0.36369103     0.96700
O3          O  0.05869902  0.91249623  0.34582269    -0.71800
O4          O  0.10651212  0.95607164  0.33361835    -0.75400
Al5        Al  0.10084299  0.90741795  0.35529820     1.49000
C6          C  0.10193999  0.98979679  0.34334392     0.91900
O7          O  0.07658008  0.98394667  0.43915817    -0.81600
O8          O  0.09279638  0.91108490  0.47001834    -0.75200
Al9        Al  0.11283805  0.96708691  0.41227594     1.90100
O10         O  0.04469168  0.93589692  0.43276689    -0.74200
O11         O  0.09856163  0.85393612  0.42353122    -0.74100
O12         O  0.04490980  0.87877629  0.39133992    -0.79700
O13         O  0.09738539  0.85378120  0.36662291    -0.77900
O14         O  0.09544074  0.92422521  0.39832217    -1.14100
O15         O  0.14268087  0.90204298  0.36216287    -0.73300
C16         C  0.16120188  0.92652225  0.37361633     0.97400
C17         C  0.05007182  0.96901173  0.44320063     0.93800
Al18       Al  0.07238406  0.89683395  0.42712128     1.55600
O19         O  0.09767483  0.99711491  0.37492069    -0.77900
C20         C  0.10154686  0.83627761  0.39514159     0.98000
C21         C  0.11694182  0.92984431  0.47585371     0.92900
O22         O  0.13137517  0.94403894  0.45086780    -0.83200
O23         O  0.13651761  0.56298362  0.45489556    -0.82700
C24         C  0.04020449  0.60942499  0.37184384     0.96700
O25         O  0.04814976  0.62790555  0.39872431    -0.71800
O26         O  0.04961943  0.57232744  0.44183075    -0.75400
Al27       Al  0.07716557  0.61105795  0.43351668     1.49000
C28         C  0.05478433  0.53857059  0.45061289     0.91900
O29         O  0.09957774  0.51039091  0.38098710    -0.81600
O30         O  0.14427625  0.60593153  0.36576464    -0.75200
Al31       Al  0.11626928  0.54040296  0.41742317     1.90100
O32         O  0.10840966  0.55079622  0.33897248    -0.74200
O33         O  0.09896129  0.65377190  0.37086633    -0.74100
O34         O  0.06031738  0.59363796  0.35330088    -0.79700
O35         O  0.10311087  0.65383837  0.42749307    -0.77900
O36         O  0.09875572  0.58328559  0.40398890    -1.14100
O37         O  0.09981464  0.59788354  0.47531434    -0.73300
C38         C  0.12399256  0.57892673  0.48014103     0.97400
C39         C  0.10442863  0.51705603  0.34936336     0.93800
Al40       Al  0.10257387  0.59973390  0.36048400     1.55600
O41         O  0.08106360  0.52366269  0.44583542    -0.77900
C42         C  0.10427919  0.67156687  0.39894280     0.98000
C43         C  0.16292118  0.58118668  0.37642525     0.92900
O44         O  0.15384946  0.55117982  0.39213221    -0.83200
O45         O  0.38422916  0.94461002  0.25390381    -0.82700
C46         C  0.28891915  0.90415810  0.34126399     0.96700
O47         O  0.29487710  0.88508721  0.31404683    -0.71800
O48         O  0.29724464  0.94041967  0.27071802    -0.75400
Al49       Al  0.32352662  0.90028277  0.27788595     1.49000
C50         C  0.30328453  0.97361737  0.26082172     0.91900
O51         O  0.35029400  0.00023009  0.32774855    -0.81600
O52         O  0.39345124  0.90324297  0.34314139    -0.75200
Al53       Al  0.36572833  0.96909807  0.29145698     1.90100
O54         O  0.35956847  0.96034553  0.37008314    -0.74200
O55         O  0.34639129  0.85733396  0.33995105    -0.74100
O56         O  0.31016032  0.91948148  0.35846481    -0.79700
O57         O  0.34809909  0.85610875  0.28310908    -0.77900
O58         O  0.34722213  0.92722443  0.30611564    -1.14100
O59         O  0.34528774  0.91219510  0.23497893    -0.73300
C60         C  0.37021974  0.92953332  0.22918012     0.97400
C61         C  0.35524930  0.99388085  0.35939710     0.93800
Al62       Al  0.35190580  0.91131958  0.34960379     1.55600
O63         O  0.33038809  0.98703085  0.26352960    -0.77900
C64         C  0.35044351  0.83898557  0.31194303     0.98000
C65         C  0.41244112  0.92770883  0.33263993     0.92900
O66         O  0.40390652  0.95750720  0.31620368    -0.83200
O67         O  0.40188960  0.55175011  0.32723851    -0.82700
C68         C  0.28963124  0.61350471  0.34731259     0.96700
O69         O  0.31006100  0.59870019  0.36613174    -0.71800
O70         O  0.35709007  0.55483350  0.38037003    -0.75400
Al71       Al  0.35211850  0.60336943  0.35727031     1.49000
C72         C  0.35168143  0.52097094  0.37113823     0.91900
O73         O  0.32824085  0.52464340  0.27481657    -0.81600
O74         O  0.34606680  0.59582547  0.24272857    -0.75200
Al75       Al  0.36382167  0.54163992  0.30248905     1.90100
O76         O  0.29647370  0.57267449  0.27976316    -0.74200
O77         O  0.35090864  0.65430260  0.28749608    -0.74100
O78         O  0.29697456  0.63082346  0.31950827    -0.79700
O79         O  0.34909947  0.65714862  0.34429261    -0.77900
O80         O  0.34691626  0.58515229  0.31475052    -1.14100
O81         O  0.39390725  0.60817765  0.35047529    -0.73300
C82         C  0.41197648  0.58246752  0.34062267     0.97400
C83         C  0.30163189  0.53901062  0.27095877     0.93800
Al84       Al  0.32459447  0.61156874  0.28469028     1.55600
O85         O  0.34691506  0.51330673  0.33973401    -0.77900
C86         C  0.35275112  0.67359146  0.31504297     0.98000
C87         C  0.37076111  0.57766824  0.23861361     0.92900
O88         O  0.38385125  0.56351145  0.26450903    -0.83200
O89         O  0.35040916  0.45747741  0.07751024    -0.82700
C90         C  0.46315246  0.39567028  0.10000733     0.96700
O91         O  0.44289652  0.41188519  0.11790109    -0.71800
O92         O  0.39575436  0.45589034  0.13123664    -0.75400
Al93       Al  0.40074588  0.40718265  0.10932085     1.49000
C94         C  0.40039715  0.48965333  0.12119855     0.91900
O95         O  0.42437939  0.48426980  0.02506846    -0.81600
O96         O  0.40392547  0.40974111  0.49157256    -0.75200
Al97       Al  0.38856096  0.46759773  0.05286810     1.90100
O98         O  0.45611977  0.43612978  0.03090463    -0.74200
O99         O  0.40133907  0.35460906  0.04073657    -0.74100
O100        O  0.45579892  0.37851860  0.07211754    -0.79700
O101        O  0.40368906  0.35360130  0.09767993    -0.77900
O102        O  0.40564329  0.42444036  0.06625879    -1.14100
O103        O  0.35883233  0.40208261  0.10333015    -0.73300
C104        C  0.34080146  0.42769359  0.09311665     0.97400
C105        C  0.45097436  0.46970834  0.02151048     0.93800
Al106      Al  0.42788494  0.39732946  0.03677743     1.55600
O107        O  0.40501354  0.49688295  0.08964579    -0.77900
C108        C  0.39923829  0.33646634  0.06907161     0.98000
C109        C  0.37953186  0.42865544  0.48772422     0.92900
O110        O  0.36700364  0.44276446  0.51383992    -0.83200
O111        O  0.36501648  0.06626374  0.00353752    -0.82700
C112        C  0.46017329  0.10711503  0.09178873     0.96700
O113        O  0.45399343  0.12578935  0.06427094    -0.71800
O114        O  0.45177543  0.07255040  0.01880933    -0.75400
Al115      Al  0.42510948  0.11192867  0.02822522     1.49000
C116        C  0.44586789  0.03951739  0.00847371     0.91900
O117        O  0.39960551  0.00968321  0.07703723    -0.81600
O118        O  0.35610774  0.10587275  0.09358962    -0.75200
Al119      Al  0.38400448  0.04151825  0.04113013     1.90100
O120        O  0.39022507  0.04857287  0.11977068    -0.74200
O121        O  0.40304274  0.15180155  0.09189735    -0.74100
O122        O  0.43925819  0.09039304  0.10854921    -0.79700
O123        O  0.40032332  0.15588506  0.03525939    -0.77900
O124        O  0.40219032  0.08340384  0.05619789    -1.14100
O125        O  0.40224424  0.10207468  0.48438809    -0.73300
C126        C  0.37826109  0.08331710  0.47761703     0.97400
C127        C  0.39465493  0.01533837  0.10874243     0.93800
Al128      Al  0.39758302  0.09795830  0.10003436     1.55600
O129        O  0.41939315  0.02484030  0.01308470    -0.77900
C130        C  0.39925869  0.17166922  0.06472157     0.98000
C131        C  0.33708961  0.08190631  0.08223024     0.92900
O132        O  0.34603983  0.05218188  0.06616548    -0.83200
O133        O  0.11734948  0.44275056  0.20646617    -0.82700
C134        C  0.21363800  0.39960497  0.12161698     0.96700
O135        O  0.20630236  0.38111450  0.14886770    -0.71800
O136        O  0.20388345  0.43617341  0.19236070    -0.75400
Al137      Al  0.17705334  0.39667190  0.18383490     1.49000
C138        C  0.19837756  0.47000876  0.20054831     0.91900
O139        O  0.15100470  0.49804136  0.13213015    -0.81600
O140        O  0.10936133  0.40132113  0.11588311    -0.75200
Al141      Al  0.13615081  0.46645448  0.16863455     1.90100
O142        O  0.14495648  0.45753773  0.08988304    -0.74200
O143        O  0.15575238  0.35541451  0.12043952    -0.74100
O144        O  0.19334673  0.41604070  0.10373255    -0.79700
O145        O  0.15178698  0.35304911  0.17711649    -0.77900
O146        O  0.15471563  0.42450695  0.15462635    -1.14100
O147        O  0.15477691  0.40858632  0.22632869    -0.73300
C148        C  0.13053741  0.42725548  0.23155442     0.97400
C149        C  0.14819519  0.49120091  0.10029175     0.93800
Al150      Al  0.15117674  0.40891250  0.11091543     1.55600
O151        O  0.17176327  0.48424353  0.19597681    -0.77900
C152        C  0.15052550  0.33659182  0.14790576     0.98000
C153        C  0.08996974  0.42449329  0.12749110     0.92900
O154        O  0.09813387  0.45414516  0.14426380    -0.83200
O155        O  0.09757669  0.05059953  0.13491291    -0.82700
C156        C  0.21020792  0.11235693  0.11373323     0.96700
O157        O  0.18970794  0.09682470  0.09549398    -0.71800
O158        O  0.14244541  0.05276346  0.08158032    -0.75400
Al159      Al  0.14774696  0.10151282  0.10379417     1.49000
C160        C  0.14761139  0.01908583  0.09145611     0.91900
O161        O  0.17181902  0.02430520  0.18725721    -0.81600
O162        O  0.15283850  0.09672833  0.21862396    -0.75200
Al163      Al  0.13593394  0.04063166  0.15975665     1.90100
O164        O  0.20287209  0.07353390  0.18359983    -0.74200
O165        O  0.14817990  0.15350172  0.17194625    -0.74100
O166        O  0.20313904  0.12996799  0.14142458    -0.79700
O167        O  0.15098002  0.15530452  0.11525198    -0.77900
O168        O  0.15275534  0.08414691  0.14684322    -1.14100
O169        O  0.10588685  0.10643087  0.11004177    -0.73300
C170        C  0.08766832  0.08079818  0.12017505     0.97400
C171        C  0.19798438  0.03968880  0.19231602     0.93800
Al172      Al  0.17470659  0.11159352  0.17653221     1.55600
O173        O  0.15279833  0.01205185  0.12289276    -0.77900
C174        C  0.14645665  0.17211633  0.14396540     0.98000
C175        C  0.12880241  0.07724730  0.22339077     0.92900
O176        O  0.11592278  0.06208209  0.19787279    -0.83200
C177        C  0.14347181  0.23504637  0.11383984    -0.27200
C178        C  0.14206001  0.21412819  0.14500318    -0.15300
C179        C  0.13969525  0.23412888  0.17684990     0.35400
C180        C  0.14147141  0.27405360  0.17686638    -0.26600
C181        C  0.14499747  0.29483548  0.14591072    -0.15900
C182        C  0.14494385  0.27495915  0.11394819     0.36500
N183        N  0.14720139  0.29489144  0.08146571    -0.90100
H184        H  0.14467955  0.22039189  0.08912725     0.17600
H185        H  0.14082407  0.28893608  0.20147549     0.17600
N186        N  0.13636319  0.21401615  0.20926858    -0.89200
H187        H  0.12805103  0.28790922  0.06643574     0.34900
H188        H  0.16667967  0.28522369  0.06847304     0.40000
H189        H  0.11493717  0.20071872  0.20897659     0.39700
H190        H  0.13614625  0.23291519  0.23022634     0.34500
C191        C  0.00052601  0.07565497  0.12444650    -0.27200
C192        C  0.99237187  0.10429027  0.10042506    -0.15300
C193        C  0.01570703  0.12461447  0.08318536     0.35400
C194        C  0.04629929  0.11599613  0.09002481    -0.26600
C195        C  0.05459579  0.08720788  0.11377723    -0.15900
C196        C  0.03134870  0.06686380  0.13131527     0.36500
N197        N  0.03892644  0.03748600  0.15594944    -0.90100
H198        H  0.48190266  0.05411265  0.13570802     0.17600
H199        H  0.06371157  0.13201325  0.07619273     0.17600
N200        N  0.00863630  0.15390995  0.05844303    -0.89200
H201        H  0.01910787  0.02458863  0.16569825     0.34900
H202        H  0.04968783  0.05054288  0.17708940     0.40000
H203        H  0.01833060  0.14644130  0.03457974     0.39700
H204        H  0.01889828  0.17922257  0.06675640     0.34500
C205        C  0.29650470  0.12143301  0.10920765    -0.27200
C206        C  0.30424111  0.08951100  0.08883666    -0.15300
C207        C  0.28058644  0.06634506  0.07551731     0.35400
C208        C  0.25009570  0.07544754  0.08315674    -0.26600
C209        C  0.24253556  0.10703787  0.10379356    -0.15900
C210        C  0.26606840  0.13025533  0.11681019     0.36500
N211        N  0.25927859  0.16289037  0.13764428    -0.90100
H212        H  0.31417188  0.13980825  0.11970736     0.17600
H213        H  0.23211266  0.05707927  0.07356048     0.17600
N214        N  0.28736845  0.03347382  0.05476033    -0.89200
H215        H  0.26851279  0.18690256  0.12534510     0.34900
H216        H  0.27023948  0.15960698  0.16164359     0.40000
H217        H  0.29642396  0.04319484  0.03120992     0.39700
H218        H  0.26734087  0.01862237  0.04852252     0.34500
C219        C  0.26805752  0.39951254  0.13885036    -0.27200
C220        C  0.24625268  0.40422914  0.11240467    -0.15300
C221        C  0.25575740  0.41716033  0.07920001     0.35400
C222        C  0.28670505  0.42641067  0.07370834    -0.26600
C223        C  0.30818252  0.42208596  0.10043186    -0.15900
C224        C  0.29885575  0.40843837  0.13328200     0.36500
N225        N  0.32074878  0.40405094  0.16097187    -0.90100
H226        H  0.26095226  0.38997234  0.16443309     0.17600
H227        H  0.29428369  0.43587655  0.04826639     0.17600
N228        N  0.23414638  0.42043145  0.05115281    -0.89200
H229        H  0.31008837  0.39432543  0.18367007     0.34900
H230        H  0.32969950  0.43097972  0.16653828     0.40000
H231        H  0.22612184  0.39304326  0.04557708     0.39700
H232        H  0.24488077  0.43044295  0.02860469     0.34500
C233        C  0.03546414  0.42240422  0.14643579    -0.27200
C234        C  0.05743024  0.41610646  0.12057469    -0.15300
C235        C  0.04855690  0.39883910  0.08896964     0.35400
C236        C  0.01776460  0.38980855  0.08330894    -0.26600
C237        C  0.99541951  0.39754531  0.10840867    -0.15900
C238        C  0.00455611  0.41265870  0.14096646     0.36500
N239        N  0.48364949  0.42152714  0.16935761    -0.90100
H240        H  0.04255505  0.43424985  0.17116347     0.17600
H241        H  0.01108114  0.37817094  0.05837202     0.17600
N242        N  0.07077172  0.39135530  0.06227377    -0.89200
H243        H  0.49437484  0.43358183  0.19101588     0.34900
H244        H  0.47541792  0.39488298  0.17725511     0.40000
H245        H  0.07924617  0.41757591  0.05359203     0.39700
H246        H  0.06054811  0.37826886  0.04080476     0.34500
C247        C  0.40445163  0.27346795  0.09798233    -0.27200
C248        C  0.39464996  0.29448115  0.06895245    -0.15300
C249        C  0.38332754  0.27472734  0.03960731     0.35400
C250        C  0.38422176  0.23459614  0.03910162    -0.26600
C251        C  0.39564141  0.21369275  0.06750909    -0.15900
C252        C  0.40516364  0.23360467  0.09753879     0.36500
N253        N  0.41695293  0.21371010  0.12723529    -0.90100
H254        H  0.41306382  0.28802320  0.12080358     0.17600
H255        H  0.37144099  0.21818175  0.51841962     0.17600
N256        N  0.36722057  0.29394293  0.51203226    -0.89200
H257        H  0.40367017  0.22096736  0.14880071     0.34900
H258        H  0.43932803  0.22314510  0.13171558     0.40000
H259        H  0.34842050  0.30877798  0.52185634     0.39700
H260        H  0.35869465  0.27514742  0.49333825     0.34500
C261        C  0.37853280  0.46449022  0.39484796    -0.27200
C262        C  0.35383727  0.48989638  0.39692456    -0.15300
C263        C  0.33392886  0.48792296  0.42550097     0.35400
C264        C  0.34029193  0.46227586  0.45262737    -0.26600
C265        C  0.36746448  0.44059087  0.45306831    -0.15900
C266        C  0.38584150  0.44008403  0.42284742     0.36500
N267        N  0.41312579  0.41739058  0.42174125    -0.90100
H268        H  0.39356690  0.46589518  0.37247366     0.17600
H269        H  0.32545986  0.46220612  0.47519545     0.17600
N270        N  0.30789953  0.51277640  0.42741987    -0.89200
H271        H  0.42459775  0.42135983  0.39815784     0.34900
H272        H  0.40638379  0.38881502  0.42259842     0.40000
H273        H  0.31607165  0.54065065  0.42999193     0.39700
H274        H  0.29509769  0.50706889  0.44977945     0.34500
C275        C  0.41099449  0.54774268  0.20234834    -0.27200
C276        C  0.38278425  0.56716069  0.20375419    -0.15300
C277        C  0.36390620  0.56712226  0.17397884     0.35400
C278        C  0.37161595  0.54404041  0.14548912    -0.26600
C279        C  0.39772991  0.52086490  0.14643553    -0.15900
C280        C  0.41833955  0.52404481  0.17425454     0.36500
N281        N  0.44577001  0.50157036  0.17467432    -0.90100
H282        H  0.42619936  0.54829400  0.22459207     0.17600
H283        H  0.35588741  0.54193294  0.12376194     0.17600
N284        N  0.33590018  0.58818437  0.17344399    -0.89200
H285        H  0.45843427  0.50685065  0.19723505     0.34900
H286        H  0.45931887  0.51044623  0.15374452     0.40000
H287        H  0.33655605  0.60674874  0.15214612     0.39700
H288        H  0.31785179  0.56903407  0.16963593     0.34500
C289        C  0.25425416  0.47969440  0.20833987    -0.27200
C290        C  0.22419533  0.49094101  0.21693853    -0.15300
C291        C  0.21994251  0.51692285  0.24426877     0.35400
C292        C  0.24564715  0.53020025  0.26276402    -0.26600
C293        C  0.27569755  0.51869694  0.25424933    -0.15900
C294        C  0.27981427  0.49324360  0.22643870     0.36500
N295        N  0.30956776  0.48153846  0.21521705    -0.90100
H296        H  0.25797570  0.45984041  0.18730230     0.17600
H297        H  0.24219331  0.55022239  0.28378186     0.17600
N298        N  0.18968302  0.52880876  0.25393121    -0.89200
H299        H  0.32230477  0.50571002  0.20853268     0.34900
H300        H  0.32040780  0.46745156  0.23577458     0.40000
H301        H  0.18099339  0.54515166  0.23342922     0.39700
H302        H  0.19052244  0.54675242  0.27556221     0.34500
C303        C  0.25374775  0.02916419  0.19727265    -0.27200
C304        C  0.22404023  0.02015186  0.20950760    -0.15300
C305        C  0.22119855  0.99896233  0.24076248     0.35400
C306        C  0.24774801  0.98607709  0.25744237    -0.26600
C307        C  0.27731464  0.99450752  0.24490501    -0.15900
C308        C  0.28033775  0.01674131  0.21461874     0.36500
N309        N  0.31013258  0.02597481  0.20114070    -0.90100
H310        H  0.25622396  0.04633171  0.17393685     0.17600
H311        H  0.24515027  0.96898819  0.28080779     0.17600
N312        N  0.19233258  0.99061892  0.25718540    -0.89200
H313        H  0.30828219  0.04290750  0.17881934     0.34900
H314        H  0.32038357  0.00057401  0.19335883     0.40000
H315        H  0.17388721  0.00283090  0.24432034     0.39700
H316        H  0.19266154  0.00302641  0.28187650     0.34500
C317        C  0.35205386  0.77617068  0.28171707    -0.27200
C318        C  0.35563981  0.79693682  0.31263708    -0.15300
C319        C  0.36204948  0.77678433  0.34375913     0.35400
C320        C  0.36223621  0.73660770  0.34363269    -0.26600
C321        C  0.35665495  0.71584609  0.31306269    -0.15900
C322        C  0.35236574  0.73619983  0.28161018     0.36500
N323        N  0.34695192  0.71661678  0.24955337    -0.90100
H324        H  0.34760422  0.79092213  0.25744509     0.17600
H325        H  0.36615551  0.72143543  0.36779503     0.17600
N326        N  0.36790077  0.79699507  0.37552997    -0.89200
H327        H  0.36374564  0.72506373  0.23176033     0.34900
H328        H  0.32567558  0.72515884  0.23986524     0.40000
H329        H  0.38824835  0.81232875  0.37218868     0.39700
H330        H  0.37168963  0.77800376  0.39606464     0.34500
C331        C  0.35805250  0.94221024  0.16721083    -0.27200
C332        C  0.38053319  0.93870905  0.19320611    -0.15300
C333        C  0.41030350  0.95351483  0.18635264     0.35400
C334        C  0.41540731  0.97566613  0.15655633    -0.26600
C335        C  0.39166438  0.98321686  0.13321055    -0.15900
C336        C  0.36321487  0.96481329  0.13746117     0.36500
N337        N  0.33888173  0.97189007  0.11311825    -0.90100
H338        H  0.33533726  0.93080690  0.17177221     0.17600
H339        H  0.43748023  0.98927026  0.15290578     0.17600
N340        N  0.43557855  0.94781427  0.20957646    -0.89200
H341        H  0.31906940  0.95717196  0.12044907     0.34900
H342        H  0.34560139  0.96080445  0.08912160     0.40000
H343        H  0.43700318  0.91884736  0.21569608     0.39700
H344        H  0.43235668  0.96350110  0.23226143     0.34500
C345        C  0.39397364  0.06395327  0.41893472    -0.27200
C346        C  0.36986109  0.07380619  0.44127978    -0.15300
C347        C  0.33958333  0.06316894  0.43193794     0.35400
C348        C  0.33468339  0.03927858  0.40325738    -0.26600
C349        C  0.35939279  0.02578227  0.38374723    -0.15900
C350        C  0.38908523  0.03955531  0.39056669     0.36500
N351        N  0.41448497  0.02629198  0.37023277    -0.90100
H352        H  0.41722360  0.07175670  0.42576638     0.17600
H353        H  0.31172892  0.02939063  0.39751704     0.17600
N354        N  0.31350525  0.07548178  0.45143605    -0.89200
H355        H  0.43499381  0.03816196  0.37916448     0.34900
H356        H  0.41139689  0.03616416  0.34479671     0.40000
H357        H  0.31430419  0.10515568  0.45331549     0.39700
H358        H  0.31422519  0.06383104  0.47640813     0.34500
C359        C  0.49673448  0.52319439  0.44990951    -0.27200
C360        C  0.02899237  0.51853395  0.46775659    -0.15300
C361        C  0.03284327  0.49569587  0.49764210     0.35400
C362        C  0.00701817  0.48254976  0.51564139    -0.26600
C363        C  0.47501478  0.48756409  0.49833881    -0.15900
C364        C  0.47099883  0.51024749  0.46833090     0.36500
N365        N  0.44123466  0.52005640  0.45559175    -0.90100
H366        H  0.49318825  0.54101304  0.42717460     0.17600
H367        H  0.00956695  0.45873724  0.03339672     0.17600
N368        N  0.06251852  0.48646763  0.51100645    -0.89200
H369        H  0.42985317  0.53541692  0.47483470     0.34900
H370        H  0.42906366  0.49495213  0.45080717     0.40000
H371        H  0.07426644  0.51180546  0.51614814     0.39700
H372        H  0.07445604  0.47136077  0.49204114     0.34500
C373        C  0.49882415  0.57566264  0.33580750    -0.27200
C374        C  0.00742387  0.60421333  0.36295570    -0.15300
C375        C  0.48449994  0.62907955  0.37233493     0.35400
C376        C  0.45391807  0.62043818  0.36629944    -0.26600
C377        C  0.44510239  0.58935939  0.34557041    -0.15900
C378        C  0.46789207  0.56725724  0.32937126     0.36500
N379        N  0.45975303  0.53657332  0.30648011    -0.90100
H380        H  0.01759867  0.56554557  0.32081891     0.17600
H381        H  0.43685941  0.63833494  0.37844967     0.17600
N382        N  0.49118516  0.66184685  0.39315266    -0.89200
H383        H  0.47932596  0.52275191  0.29739654     0.34900
H384        H  0.44919438  0.54856881  0.28465997     0.40000
H385        H  0.50618493  0.67963863  0.37946595     0.39700
H386        H  0.50119322  0.65320249  0.41654275     0.34500
C387        C  0.20320001  0.61439833  0.34317082    -0.27200
C388        C  0.19555835  0.58831020  0.36957067    -0.15300
C389        C  0.21894695  0.57194277  0.38973856     0.35400
C390        C  0.24946793  0.58178974  0.38300134    -0.26600
C391        C  0.25711286  0.60781785  0.35639838    -0.15900
C392        C  0.23352544  0.62430318  0.33645477     0.36500
N393        N  0.24007119  0.65092818  0.30912192    -0.90100
H394        H  0.18548712  0.62732148  0.32734133     0.17600
H395        H  0.26723578  0.56841808  0.39836739     0.17600
N396        N  0.21189097  0.54591424  0.41737426    -0.89200
H397        H  0.22862923  0.67632025  0.31453905     0.34900
H398        H  0.23129762  0.63995416  0.28590150     0.40000
H399        H  0.22066479  0.55709056  0.44049897     0.39700
H400        H  0.22310935  0.52025129  0.41240088     0.34500
C401        C  0.12225872  0.54747319  0.07441309    -0.27200
C402        C  0.14717259  0.52233583  0.07450632    -0.15300
C403        C  0.16785429  0.52283269  0.04660438     0.35400
C404        C  0.16162650  0.54570150  0.01746307    -0.26600
C405        C  0.13443905  0.56712057  0.01510594    -0.15900
C406        C  0.11566627  0.57006484  0.04492685     0.36500
N407        N  0.08881096  0.59356215  0.04429360    -0.90100
H408        H  0.10656660  0.54719274  0.09622140     0.17600
H409        H  0.17981013  0.55136228  0.49624019     0.17600
N410        N  0.19411850  0.49828390  0.04718087    -0.89200
H411        H  0.09612147  0.62180793  0.04182098     0.34900
H412        H  0.07709411  0.59167647  0.06793912     0.40000
H413        H  0.20812475  0.50696589  0.06775620     0.39700
H414        H  0.20697504  0.50158758  0.02444926     0.34500
C415        C  0.08511274  0.47813060  0.30011034    -0.27200
C416        C  0.10809786  0.48537828  0.32452160    -0.15300
C417        C  0.13615159  0.46552530  0.32202817     0.35400
C418        C  0.14156828  0.44138131  0.29369832    -0.26600
C419        C  0.11979326  0.43739143  0.26706864    -0.15900
C420        C  0.09056840  0.45402677  0.27169177     0.36500
N421        N  0.06693082  0.44838765  0.24636368    -0.90100
H422        H  0.06339474  0.49279568  0.30206303     0.17600
H423        H  0.16415122  0.42916322  0.29067409     0.17600
N424        N  0.16047650  0.47177647  0.34633716    -0.89200
H425        H  0.06074742  0.47499073  0.23632818     0.34900
H426        H  0.04786932  0.43682922  0.25901308     0.40000
H427        H  0.15235927  0.46568091  0.37130641     0.39700
H428        H  0.16674657  0.50048077  0.34518763     0.34500
C429        C  0.21518126  0.95015222  0.37153520    -0.27200
C430        C  0.19442008  0.91981551  0.36813576    -0.15300
C431        C  0.20553396  0.88353158  0.35788623     0.35400
C432        C  0.23652514  0.87919517  0.34950554    -0.26600
C433        C  0.25696385  0.90961237  0.35225035    -0.15900
C434        C  0.24635274  0.94549398  0.36357094     0.36500
N435        N  0.26700386  0.97737869  0.36571657    -0.90100
H436        H  0.20693964  0.97789892  0.37933915     0.17600
H437        H  0.24489125  0.85174441  0.34099629     0.17600
N438        N  0.18544477  0.85106741  0.35593989    -0.89200
H439        H  0.25557725  0.00162501  0.37448994     0.34900
H440        H  0.27461507  0.98356807  0.34054037     0.40000
H441        H  0.17815300  0.84480303  0.38122086     0.39700
H442        H  0.19713542  0.82702844  0.34713739     0.34500
C443        C  0.48416819  0.90122744  0.38172961    -0.27200
C444        C  0.50581214  0.89961180  0.35490053    -0.15300
C445        C  0.49665496  0.90813319  0.32052870     0.35400
C446        C  0.46628616  0.91902498  0.31378117    -0.26600
C447        C  0.44481516  0.92072565  0.34076605    -0.15900
C448        C  0.45391971  0.91134082  0.37506075     0.36500
N449        N  0.43312817  0.91270962  0.40385008    -0.90100
H450        H  0.49089612  0.89542342  0.40835350     0.17600
H451        H  0.45924699  0.92498337  0.28728553     0.17600
N452        N  0.01690635  0.90850547  0.29176310    -0.89200
H453        H  0.42299745  0.93963576  0.40446790     0.34900
H454        H  0.41613118  0.89209918  0.40046471     0.40000
H455        H  0.01667291  0.93472302  0.27884781     0.39700
H456        H  0.00876654  0.88796013  0.27442430     0.34500
C457        C  0.11043493  0.77534507  0.42740421    -0.27200
C458        C  0.10752846  0.79448588  0.39541261    -0.15300
C459        C  0.10826295  0.77285623  0.36450128     0.35400
C460        C  0.10883146  0.73293669  0.36627463    -0.26600
C461        C  0.10925945  0.71364660  0.39835427    -0.15900
C462        C  0.11179804  0.73534362  0.42924729     0.36500
N463        N  0.11494337  0.71692152  0.46250846    -0.90100
H464        H  0.11090450  0.79157258  0.45130093     0.17600
H465        H  0.10792289  0.71700117  0.34221889     0.17600
N466        N  0.10772259  0.79106913  0.33111862    -0.89200
H467        H  0.11562423  0.73691750  0.48252857     0.34900
H468        H  0.13618618  0.70322067  0.46273566     0.40000
H469        H  0.08854741  0.78121582  0.31753172     0.39700
H470        H  0.12727674  0.78280378  0.31748819     0.34500
C471        C  0.12963310  0.04464149  0.31742261    -0.27200
C472        C  0.10385911  0.02071501  0.31738845    -0.15300
C473        C  0.08315460  0.02264207  0.28943739     0.35400
C474        C  0.08971029  0.04606019  0.26091729    -0.26600
C475        C  0.11748182  0.06653638  0.25871891    -0.15900
C476        C  0.13679399  0.06751464  0.28827089     0.36500
N477        N  0.16473699  0.08915342  0.28761675    -0.90100
H478        H  0.14547300  0.04319169  0.33908842     0.17600
H479        H  0.07419834  0.04536674  0.23892783     0.17600
N480        N  0.05603920  0.99966834  0.28865355    -0.89200
H481        H  0.17683041  0.08562866  0.31087370     0.34900
H482        H  0.15878410  0.11791991  0.28613515     0.40000
H483        H  0.04320047  0.00554355  0.31092471     0.39700
H484        H  0.06251649  0.97108206  0.28947641     0.34500
C485        C  0.11698341  0.96630020  0.06695528    -0.27200
C486        C  0.14424633  0.98753338  0.06657486    -0.15300
C487        C  0.16569289  0.98131463  0.04001528     0.35400
C488        C  0.15848216  0.95645683  0.01287028    -0.26600
C489        C  0.12943675  0.93890007  0.01059542    -0.15900
C490        C  0.10918560  0.94213187  0.03908431     0.36500
N491        N  0.07981720  0.92364585  0.03834417    -0.90100
H492        H  0.10070829  0.97081673  0.08778398     0.17600
H493        H  0.17466050  0.95382640  0.99166669     0.17600
N494        N  0.19435329  0.00114224  0.03921362    -0.89200
H495        H  0.06728538  0.93010940  0.06068294     0.34900
H496        H  0.08367220  0.89427775  0.03894486     0.40000
H497        H  0.20600941  0.99512301  0.06233541     0.39700
H498        H  0.18998078  0.03036496  0.03822700     0.34500
C499        C  0.02189723  0.02815683  0.46039488    -0.27200
C500        C  0.02450942  0.98853037  0.46132667    -0.15300
C501        C  0.00145511  0.96697097  0.47861955     0.35400
C502        C  0.47491882  0.98131787  0.49353080    -0.26600
C503        C  0.47104415  0.01958034  0.99025238    -0.15900
C504        C  0.49061608  0.04058820  0.46631845     0.36500
N505        N  0.48445853  0.07934837  0.45699463    -0.90100
H506        H  0.03916241  0.04506335  0.44721481     0.17600
H507        H  0.46150222  0.96488177  0.01326303     0.17600
N508        N  0.00412379  0.92651194  0.48234935    -0.89200
H509        H  0.99453409  0.09456976  0.44682549     0.34900
H510        H  0.50383377  0.09601787  0.96845997     0.40000
H511        H  0.98472045  0.91391454  0.47133414     0.39700
H512        H  0.50604300  0.92002947  0.51432376     0.34500
O513        O  0.15127492  0.95578883  0.88799764    -0.82700
C514        C  0.03772706  0.89626666  0.86378013     0.96700
O515        O  0.05843307  0.91204435  0.84606472    -0.71800
O516        O  0.10595316  0.95595450  0.83418552    -0.75400
Al517      Al  0.10029949  0.90681603  0.85532423     1.49000
C518        C  0.10128825  0.98951317  0.84446742     0.91900
O519        O  0.07675251  0.98231284  0.94040436    -0.81600
O520        O  0.09369424  0.90965138  0.97032087    -0.75200
Al521      Al  0.11273012  0.96586979  0.91254059     1.90100
O522        O  0.04478190  0.93443642  0.93371314    -0.74200
O523        O  0.09845234  0.85305763  0.92309854    -0.74100
O524        O  0.04438241  0.87831917  0.89157208    -0.79700
O525        O  0.09674007  0.85277525  0.86621332    -0.77900
O526        O  0.09513076  0.92326440  0.89846391    -1.14100
O527        O  0.14184822  0.90126729  0.86205392    -0.73300
C528        C  0.16064761  0.92557781  0.87300228     0.97400
C529        C  0.05019905  0.96739624  0.94434208     0.93800
Al530      Al  0.07241478  0.89571361  0.92738379     1.55600
O531        O  0.09679527  0.99622742  0.87608608    -0.77900
C532        C  0.10083307  0.83522864  0.89476540     0.98000
C533        C  0.11831207  0.92790120  0.97537612     0.92900
O534        O  0.13204726  0.94206231  0.94994972    -0.83200
O535        O  0.13551756  0.56101104  0.95437743    -0.82700
C536        C  0.03996798  0.60876928  0.87083189     0.96700
O537        O  0.04780339  0.62689323  0.89792086    -0.71800
O538        O  0.04868757  0.57078358  0.94043989    -0.75400
Al539      Al  0.07651815  0.60941234  0.93270124     1.49000
C540        C  0.05370022  0.53688958  0.94892170     0.91900
O541        O  0.09875344  0.50884907  0.88020756    -0.81600
O542        O  0.14433033  0.60348612  0.86468417    -0.75200
Al543      Al  0.11542731  0.53860666  0.91669527     1.90100
O544        O  0.10726794  0.54946018  0.83822498    -0.74200
O545        O  0.09929630  0.65240908  0.87039145    -0.74100
O546        O  0.06006775  0.59296570  0.85235991    -0.79700
O547        O  0.10270763  0.65192969  0.92708828    -0.77900
O548        O  0.09824309  0.58170267  0.90318565    -1.14100
O549        O  0.09873861  0.59577801  0.97472191    -0.73300
C550        C  0.12285193  0.57674149  0.97966327     0.97400
C551        C  0.10298416  0.51577523  0.84853540     0.93800
Al552      Al  0.10234203  0.59830608  0.85971709     1.55600
O553        O  0.08003762  0.52208467  0.94455747    -0.77900
C554        C  0.10376701  0.67005011  0.89873653     0.98000
C555        C  0.16250731  0.57817209  0.87533417     0.92900
O556        O  0.15315084  0.54881426  0.89174427    -0.83200
O557        O  0.38165321  0.94658432  0.75303035    -0.82700
C558        C  0.28885608  0.90096827  0.84267366     0.96700
O559        O  0.29469337  0.88246350  0.81505253    -0.71800
O560        O  0.29587913  0.93732821  0.77126348    -0.75400
Al561      Al  0.32289973  0.89789516  0.77858507     1.49000
C562        C  0.30099437  0.97116844  0.76265036     0.91900
O563        O  0.34837893  0.99787285  0.83037323    -0.81600
O564        O  0.39355656  0.90179900  0.84244658    -0.75200
Al565      Al  0.36361515  0.96831481  0.79259820     1.90100
O566        O  0.35966103  0.95729995  0.87132062    -0.74200
O567        O  0.34665611  0.85476454  0.84040009    -0.74100
O568        O  0.31026438  0.91587121  0.85996588    -0.79700
O569        O  0.34789356  0.85386364  0.78363641    -0.77900
O570        O  0.34637035  0.92526873  0.80673877    -1.14100
O571        O  0.34434920  0.91020214  0.73548320    -0.73300
C572        C  0.36818254  0.92952451  0.72888039     0.97400
C573        C  0.35457183  0.99097154  0.86163876     0.93800
Al574      Al  0.35197677  0.90873166  0.85008619     1.55600
O575        O  0.32751280  0.98585156  0.76640858    -0.77900
C576        C  0.35011665  0.83643343  0.81234028     0.98000
C577        C  0.41190396  0.92713242  0.83200677     0.92900
O578        O  0.40254847  0.95682671  0.81592311    -0.83200
O579        O  0.40203716  0.54918529  0.82562586    -0.82700
C580        C  0.28873085  0.60879078  0.84359365     0.96700
O581        O  0.30900528  0.59435853  0.86289129    -0.71800
O582        O  0.35647724  0.55174258  0.87837139    -0.75400
Al583      Al  0.35122044  0.59986913  0.85518186     1.49000
C584        C  0.35210560  0.51765215  0.86940664     0.91900
O585        O  0.32921816  0.52056759  0.77283584    -0.81600
O586        O  0.34733728  0.59325866  0.74039020    -0.75200
Al587      Al  0.36440346  0.53824547  0.80055364     1.90100
O588        O  0.29741458  0.56891576  0.77595126    -0.74200
O589        O  0.35075337  0.65152077  0.78589873    -0.74100
O590        O  0.29638883  0.62659457  0.81616547    -0.79700
O591        O  0.34774758  0.65360790  0.84262565    -0.77900
O592        O  0.34701601  0.58171965  0.81244187    -1.14100
O593        O  0.39320365  0.60521190  0.84961005    -0.73300
C594        C  0.41152463  0.57944357  0.84035903     0.97400
C595        C  0.30272541  0.53494652  0.76837517     0.93800
Al596      Al  0.32500181  0.60817586  0.78197311     1.55600
O597        O  0.34778682  0.50952344  0.83799381    -0.77900
C598        C  0.35172632  0.67052327  0.81370354     0.98000
C599        C  0.37185542  0.57473900  0.73645854     0.92900
O600        O  0.38441893  0.55987934  0.76239298    -0.83200
O601        O  0.35051414  0.45639681  0.57658559    -0.82700
C602        C  0.46362997  0.39552457  0.59544430     0.96700
O603        O  0.44358104  0.41151671  0.61374889    -0.71800
O604        O  0.39694814  0.45531615  0.62824881    -0.75400
Al605      Al  0.40148293  0.40642409  0.60681589     1.49000
C606        C  0.40145442  0.48896935  0.61786907     0.91900
O607        O  0.42290909  0.48234223  0.52077894    -0.81600
O608        O  0.40645410  0.41254992  0.99421407    -0.75200
Al609      Al  0.38792209  0.46603467  0.55025100     1.90100
O610        O  0.45461566  0.43406906  0.52543535    -0.74200
O611        O  0.40042309  0.35268664  0.53919456    -0.74100
O612        O  0.45594503  0.37776498  0.56796807    -0.79700
O613        O  0.40436313  0.35273961  0.59598998    -0.77900
O614        O  0.40532677  0.42304439  0.56340916    -1.14100
O615        O  0.35942044  0.40113909  0.60240740    -0.73300
C616        C  0.34121646  0.42689106  0.59291278     0.97400
C617        C  0.44930304  0.46761850  0.51605930     0.93800
Al618      Al  0.42671808  0.39541094  0.53341493     1.55600
O619        O  0.40543476  0.49590867  0.58612138    -0.77900
C620        C  0.39905668  0.33511855  0.56786598     0.98000
C621        C  0.38197018  0.43108172  0.98952900     0.92900
O622        O  0.36869927  0.44511632  0.01520667    -0.83200
O623        O  0.36443873  0.06623133  0.50151141    -0.82700
C624        C  0.45880488  0.10644160  0.59138965     0.96700
O625        O  0.45295610  0.12511121  0.56376827    -0.71800
O626        O  0.45094254  0.07268936  0.51701739    -0.75400
Al627      Al  0.42414532  0.11174028  0.52727106     1.49000
C628        C  0.44489594  0.03986143  0.50620342     0.91900
O629        O  0.39814870  0.00811960  0.57494864    -0.81600
O630        O  0.35442687  0.10397628  0.59213679    -0.75200
Al631      Al  0.38296770  0.04088422  0.53901562     1.90100
O632        O  0.38892325  0.04667695  0.61793324    -0.74200
O633        O  0.40119211  0.15036311  0.59137807    -0.74100
O634        O  0.43778822  0.08922614  0.60758795    -0.79700
O635        O  0.39926389  0.15531453  0.53475897    -0.77900
O636        O  0.40106615  0.08256320  0.55476719    -1.14100
O637        O  0.40303990  0.10130938  0.98562482    -0.73300
C638        C  0.37900429  0.08245518  0.97926273     0.97400
C639        C  0.39322860  0.01347638  0.60677614     0.93800
Al640      Al  0.39604847  0.09638947  0.59875565     1.55600
O641        O  0.41853661  0.02496693  0.51107872    -0.77900
C642        C  0.39798184  0.17061852  0.56436312     0.98000
C643        C  0.33542630  0.08035897  0.58010415     0.92900
O644        O  0.34454480  0.05100575  0.56360046    -0.83200
O645        O  0.11680506  0.44478548  0.70335880    -0.82700
C646        C  0.21404069  0.39807434  0.62189630     0.96700
O647        O  0.20626195  0.38000946  0.64923850    -0.71800
O648        O  0.20403425  0.43623307  0.69116016    -0.75400
Al649      Al  0.17667686  0.39724558  0.68334704     1.49000
C650        C  0.19857021  0.46999177  0.69942846     0.91900
O651        O  0.15447238  0.49779644  0.63016939    -0.81600
O652        O  0.10985116  0.40281932  0.61373279    -0.75200
Al653      Al  0.13736666  0.46768927  0.66620226     1.90100
O654        O  0.14726533  0.45740893  0.58793705    -0.74200
O655        O  0.15483246  0.35492278  0.62077462    -0.74100
O656        O  0.19399583  0.41405380  0.60344224    -0.79700
O657        O  0.15076062  0.35425028  0.67749973    -0.77900
O658        O  0.15515235  0.42486670  0.65324534    -1.14100
O659        O  0.15373171  0.41082164  0.72487755    -0.73300
C660        C  0.12927956  0.42944230  0.72904462     0.97400
C661        C  0.15128602  0.49102728  0.59836681     0.93800
Al662      Al  0.15185663  0.40853690  0.60977954     1.55600
O663        O  0.17212479  0.48450244  0.69494636    -0.77900
C664        C  0.14914797  0.33705429  0.64873840     0.98000
C665        C  0.09126434  0.42766073  0.62405624     0.92900
O666        O  0.10014899  0.45723988  0.64030809    -0.83200
O667        O  0.09515242  0.05340797  0.63962466    -0.82700
C668        C  0.20888857  0.11086061  0.61447273     0.96700
O669        O  0.18759309  0.09597771  0.59694302    -0.71800
O670        O  0.13880919  0.05397358  0.58448868    -0.75400
Al671      Al  0.14582550  0.10229524  0.60676414     1.49000
C672        C  0.14338777  0.02003867  0.59395136     0.91900
O673        O  0.16979250  0.02381695  0.68904269    -0.81600
O674        O  0.15394744  0.09684075  0.72146628    -0.75200
Al675      Al  0.13380781  0.04176927  0.66283229     1.90100
O676        O  0.20213759  0.07161643  0.68450216    -0.74200
O677        O  0.14949947  0.15411414  0.67516749    -0.74100
O678        O  0.20295819  0.12843172  0.64253990    -0.79700
O679        O  0.15054971  0.15580700  0.61835813    -0.77900
O680        O  0.15153279  0.08455189  0.64950159    -1.14100
O681        O  0.10418229  0.10887122  0.61457020    -0.73300
C682        C  0.08557346  0.08419485  0.62574436     0.97400
C683        C  0.19641616  0.03805235  0.69356525     0.93800
Al684      Al  0.17499659  0.11097589  0.67857259     1.55600
O685        O  0.14869360  0.01242019  0.62527350    -0.77900
C686        C  0.14690337  0.17264741  0.64721606     0.98000
C687        C  0.12936815  0.07860939  0.72664634     0.92900
O688        O  0.11559061  0.06425314  0.70137224    -0.83200
C689        C  0.14064118  0.23507293  0.61680392    -0.27200
C690        C  0.14206471  0.21456904  0.64819205    -0.15300
C691        C  0.14116097  0.23496009  0.67984018     0.35400
C692        C  0.14201208  0.27489503  0.67942265    -0.26600
C693        C  0.14313074  0.29533834  0.64798516    -0.15900
C694        C  0.14076300  0.27502931  0.61642241     0.36500
N695        N  0.13882261  0.29468542  0.58379658    -0.90100
H696        H  0.14024451  0.22012037  0.59220857     0.17600
H697        H  0.14281392  0.28983052  0.70401645     0.17600
N698        N  0.14003431  0.21544621  0.71259651    -0.89200
H699        H  0.11849809  0.28641654  0.57155953     0.34900
H700        H  0.15712486  0.28600265  0.56826769     0.40000
H701        H  0.12040347  0.22429648  0.72576542     0.39700
H702        H  0.15911680  0.22365426  0.72722477     0.34500
C703        C  0.99844903  0.07723390  0.62894167    -0.27200
C704        C  0.99019049  0.10766788  0.60698285    -0.15300
C705        C  0.01321649  0.13180040  0.59385884     0.35400
C706        C  0.04386850  0.12384503  0.60107498    -0.26600
C707        C  0.05242091  0.09206312  0.62128805    -0.15900
C708        C  0.02928330  0.06923999  0.63640265     0.36500
N709        N  0.03698000  0.03784853  0.65881233    -0.90100
H710        H  0.48148789  0.04911809  0.62926804     0.17600
H711        H  0.06109292  0.14246804  0.58992259     0.17600
N712        N  0.00573456  0.16421347  0.57279835    -0.89200
H713        H  0.01725699  0.02341177  0.66688218     0.34900
H714        H  0.04693811  0.04917328  0.68125783     0.40000
H715        H  0.01660204  0.16120597  0.54875093     0.39700
H716        H  0.01457743  0.18850637  0.58486496     0.34500
C717        C  0.29459163  0.12209115  0.60380006    -0.27200
C718        C  0.30243337  0.08802746  0.58657494    -0.15300
C719        C  0.27880794  0.06261560  0.57696726     0.35400
C720        C  0.24837561  0.07153855  0.58549101    -0.26600
C721        C  0.24087222  0.10516796  0.60325149    -0.15900
C722        C  0.26427140  0.13068976  0.61226780     0.36500
N723        N  0.25740503  0.16550708  0.62987307    -0.90100
H724        H  0.31212341  0.14237555  0.61121264     0.17600
H725        H  0.23045292  0.05150184  0.57912429     0.17600
N726        N  0.28559964  0.02758324  0.55940751    -0.89200
H727        H  0.26536217  0.18811408  0.61457328     0.34900
H728        H  0.26949567  0.16577801  0.65334957     0.40000
H729        H  0.29331695  0.03458673  0.53446357     0.39700
H730        H  0.26573662  0.01134812  0.55600013     0.34500
C731        C  0.26881832  0.39613583  0.63866603    -0.27200
C732        C  0.24673383  0.40313302  0.61292629    -0.15300
C733        C  0.25596536  0.41925084  0.58071780     0.35400
C734        C  0.28681310  0.42883975  0.57547163    -0.26600
C735        C  0.30868630  0.42150748  0.60112712    -0.15900
C736        C  0.29968165  0.40513645  0.63312249     0.36500
N737        N  0.32192599  0.39805115  0.65996736    -0.90100
H738        H  0.26192643  0.38453825  0.66361400     0.17600
H739        H  0.29403935  0.44068682  0.55072932     0.17600
N740        N  0.23415478  0.42551641  0.55328874    -0.89200
H741        H  0.31154045  0.38609630  0.68194980     0.34900
H742        H  0.33092873  0.42432249  0.66760933     0.40000
H743        H  0.22618671  0.39884759  0.54526652     0.39700
H744        H  0.24463823  0.43806930  0.53166272     0.34500
C745        C  0.03737972  0.42930453  0.64326549    -0.27200
C746        C  0.05868745  0.42110538  0.61724670    -0.15300
C747        C  0.04907213  0.40343748  0.58621388     0.35400
C748        C  0.01819748  0.39417730  0.58192306    -0.26600
C749        C  0.99657957  0.40256896  0.60774380    -0.15900
C750        C  0.00637744  0.41990255  0.63906357     0.36500
N751        N  0.48389283  0.42100614  0.66465082    -0.90100
H752        H  0.04511351  0.44213611  0.66732333     0.17600
H753        H  0.01090288  0.38153428  0.55762216     0.17600
N754        N  0.07063378  0.39551493  0.55893333    -0.89200
H755        H  0.49447804  0.43289149  0.68647927     0.34900
H756        H  0.47583412  0.39417450  0.67221332     0.40000
H757        H  0.07925732  0.42156301  0.55000705     0.39700
H758        H  0.05977105  0.38265870  0.53775650     0.34500
C759        C  0.40632418  0.27239825  0.59661030    -0.27200
C760        C  0.39428950  0.29322086  0.56855426    -0.15300
C761        C  0.38084043  0.27339803  0.54046919     0.35400
C762        C  0.38128562  0.23331249  0.54025990    -0.26600
C763        C  0.39494204  0.21257174  0.56741865    -0.15900
C764        C  0.40743507  0.23246184  0.59607879     0.36500
N765        N  0.42280914  0.21233107  0.62363539    -0.90100
H766        H  0.41679309  0.28738498  0.61815852     0.17600
H767        H  0.37630252  0.21959952  0.01621143     0.17600
N768        N  0.37123115  0.29535991  0.01034298    -0.89200
H769        H  0.43030113  0.23115235  0.64287695     0.34900
H770        H  0.44249380  0.20008547  0.61306985     0.40000
H771        H  0.35171765  0.30977122  0.01881989     0.39700
H772        H  0.36401109  0.27661966  0.99091243     0.34500
C773        C  0.38118177  0.46418056  0.89547215    -0.27200
C774        C  0.35498470  0.48726095  0.89581924    -0.15300
C775        C  0.33479226  0.48512640  0.92414854     0.35400
C776        C  0.34217932  0.46170018  0.95263151    -0.26600
C777        C  0.37029429  0.44202027  0.95436893    -0.15900
C778        C  0.38925855  0.44178170  0.92459903     0.36500
N779        N  0.41782456  0.42162145  0.92505358    -0.90100
H780        H  0.39664999  0.46601684  0.87350768     0.17600
H781        H  0.32704995  0.46159069  0.97494212     0.17600
N782        N  0.30734895  0.50764380  0.92436841    -0.89200
H783        H  0.42964997  0.42575901  0.90172547     0.34900
H784        H  0.41276032  0.39255506  0.92665111     0.40000
H785        H  0.31378999  0.53630416  0.92563275     0.39700
H786        H  0.29454373  0.50210443  0.94676895     0.34500
C787        C  0.41190619  0.54394368  0.70057992    -0.27200
C788        C  0.38441192  0.56488468  0.70160415    -0.15300
C789        C  0.36662914  0.56735185  0.67100497     0.35400
C790        C  0.37440188  0.54497826  0.64200706    -0.26600
C791        C  0.39954299  0.52017656  0.64323494    -0.15900
C792        C  0.41927517  0.52102576  0.67199757     0.36500
N793        N  0.44571537  0.49680519  0.67285451    -0.90100
H794        H  0.42639398  0.54260127  0.72340196     0.17600
H795        H  0.35930455  0.54462283  0.61962747     0.17600
N796        N  0.33970328  0.59048201  0.66992139    -0.89200
H797        H  0.45778344  0.50037118  0.69610413     0.34900
H798        H  0.46032522  0.50557345  0.65282628     0.40000
H799        H  0.34220858  0.61005025  0.64956730     0.39700
H800        H  0.32097824  0.57303946  0.66410896     0.34500
C801        C  0.25362374  0.48501743  0.70184378    -0.27200
C802        C  0.22418369  0.49052001  0.71582047    -0.15300
C803        C  0.22109150  0.50780364  0.74856538     0.35400
C804        C  0.24755658  0.51958916  0.76642164    -0.26600
C805        C  0.27700241  0.51416940  0.75235283    -0.15900
C806        C  0.27990743  0.49656832  0.71969009     0.36500
N807        N  0.30910369  0.49096318  0.70365392    -0.90100
H808        H  0.25621144  0.47088277  0.67699606     0.17600
H809        H  0.24524944  0.53358615  0.79135317     0.17600
N810        N  0.19140487  0.51164708  0.76424182    -0.89200
H811        H  0.31995044  0.51734304  0.70120236     0.34900
H812        H  0.32231781  0.47376807  0.72001193     0.40000
H813        H  0.17889718  0.53095103  0.74918813     0.39700
H814        H  0.19328969  0.52358783  0.78902730     0.34500
C815        C  0.25195752  0.02735572  0.69943991    -0.27200
C816        C  0.22208997  0.01761153  0.71065010    -0.15300
C817        C  0.21882021  0.99494278  0.74103683     0.35400
C818        C  0.24518967  0.98164096  0.75787178    -0.26600
C819        C  0.27486402  0.99149269  0.74662287    -0.15900
C820        C  0.27825348  0.01505300  0.71727411     0.36500
N821        N  0.30819474  0.02596307  0.70531507    -0.90100
H822        H  0.25482293  0.04537379  0.67670366     0.17600
H823        H  0.24238596  0.96344965  0.78051014     0.17600
N824        N  0.18976962  0.98556079  0.75656752    -0.89200
H825        H  0.30660971  0.04384232  0.68358874     0.34900
H826        H  0.31931378  0.00135276  0.69701241     0.40000
H827        H  0.17136696  0.99804498  0.74384378     0.39700
H828        H  0.18961479  0.99689392  0.78167080     0.34500
C829        C  0.35030966  0.77370141  0.78184785    -0.27200
C830        C  0.35446486  0.79414941  0.81284842    -0.15300
C831        C  0.36083756  0.77352673  0.84376579     0.35400
C832        C  0.36061914  0.73329860  0.84327598    -0.26600
C833        C  0.35510953  0.71292302  0.81243682    -0.15900
C834        C  0.35071784  0.73372700  0.78128524     0.36500
N835        N  0.34564273  0.71455983  0.74896212    -0.90100
H836        H  0.34575149  0.78874988  0.75775993     0.17600
H837        H  0.36454875  0.71778680  0.86726065     0.17600
N838        N  0.36737329  0.79329826  0.87560311    -0.89200
H839        H  0.36254681  0.72338997  0.73145539     0.34900
H840        H  0.32440530  0.72306969  0.73915550     0.40000
H841        H  0.38787817  0.80825740  0.87201843     0.39700
H842        H  0.37123168  0.77402080  0.89588776     0.34500
C843        C  0.35483024  0.94354876  0.66723524    -0.27200
C844        C  0.37783200  0.93805361  0.69236576    -0.15300
C845        C  0.40809690  0.95003001  0.68412049     0.35400
C846        C  0.41357270  0.97166512  0.65393054    -0.26600
C847        C  0.38963962  0.98118982  0.63131521    -0.15900
C848        C  0.36041072  0.96523653  0.63692228     0.36500
N849        N  0.33591164  0.97382645  0.61321376    -0.90100
H850        H  0.33167517  0.93428316  0.67283728     0.17600
H851        H  0.43625398  0.98319494  0.64934217     0.17600
N852        N  0.43364643  0.94133219  0.70611993    -0.89200
H853        H  0.31558420  0.96078540  0.62134754     0.34900
H854        H  0.34148198  0.96186993  0.58919469     0.40000
H855        H  0.43375726  0.91200612  0.71088548     0.39700
H856        H  0.43156198  0.95572688  0.72967116     0.34500
C857        C  0.39530673  0.05769533  0.92279688    -0.27200
C858        C  0.37111813  0.07127938  0.94322440    -0.15300
C859        C  0.34063895  0.06326413  0.93273415     0.35400
C860        C  0.33523497  0.03905692  0.90429841    -0.26600
C861        C  0.35970784  0.02237794  0.88642491    -0.15900
C862        C  0.38992660  0.03294781  0.89485521     0.36500
N863        N  0.41515992  0.01658796  0.87623638    -0.90100
H864        H  0.41870117  0.06326851  0.93072851     0.17600
H865        H  0.31193784  0.03160209  0.89742267     0.17600
N866        N  0.31486048  0.07883975  0.95069586    -0.89200
H867        H  0.43600995  0.02622639  0.88630031     0.34900
H868        H  0.41397374  0.02642910  0.85058319     0.40000
H869        H  0.31733115  0.10844272  0.95128740     0.39700
H870        H  0.31458321  0.06866234  0.97620475     0.34500
C871        C  0.49946675  0.52156798  0.95450664    -0.27200
C872        C  0.02778947  0.51649774  0.96543052    -0.15300
C873        C  0.03171471  0.49125811  0.99362986     0.35400
C874        C  0.00602840  0.47822809  0.01184799    -0.26600
C875        C  0.47694773  0.48964111  0.00446706    -0.15900
C876        C  0.47347371  0.50987065  0.97298554     0.36500
N877        N  0.44396857  0.51829172  0.95873540    -0.90100
H878        H  0.49628333  0.53748644  0.93055797     0.17600
H879        H  0.01043394  0.46454167  0.53825452     0.17600
N880        N  0.06136586  0.47911357  0.00497394    -0.89200
H881        H  0.43200872  0.53491312  0.97658848     0.34900
H882        H  0.43210876  0.49272625  0.95520553     0.40000
H883        H  0.07437822  0.50312366  0.01135140     0.39700
H884        H  0.07198762  0.46478748  0.98451533     0.34500
C885        C  0.49833631  0.57565263  0.83715758    -0.27200
C886        C  0.00728001  0.60377269  0.86173368    -0.15300
C887        C  0.48227965  0.61964805  0.88228708     0.35400
C888        C  0.45198968  0.61119383  0.87434350    -0.26600
C889        C  0.44426434  0.58536751  0.84796181    -0.15900
C890        C  0.46769856  0.56755139  0.82891423     0.36500
N891        N  0.46044860  0.54204079  0.80091243    -0.90100
H892        H  0.01670825  0.55531116  0.82897967     0.17600
H893        H  0.43422545  0.62510605  0.88925833     0.17600
N894        N  0.48773802  0.64670138  0.90940953    -0.89200
H895        H  0.48039770  0.53096726  0.78993796     0.34900
H896        H  0.44983630  0.55808326  0.78141148     0.40000
H897        H  0.50109598  0.66900038  0.89958278     0.39700
H898        H  0.49902344  0.63324247  0.93000337     0.34500
C899        C  0.20265792  0.59980963  0.83523204    -0.27200
C900        C  0.19498261  0.58354376  0.86737790    -0.15300
C901        C  0.21798037  0.57609932  0.89194766     0.35400
C902        C  0.24834619  0.58577114  0.88418599    -0.26600
C903        C  0.25613069  0.60256066  0.85204701    -0.15900
C904        C  0.23289450  0.60904793  0.82717919     0.36500
N905        N  0.23976663  0.62413344  0.79339473    -0.90100
H906        H  0.18499194  0.60527260  0.81604408     0.17600
H907        H  0.26586868  0.57991996  0.90340793     0.17600
N908        N  0.21050035  0.55981801  0.92508091    -0.89200
H909        H  0.22722963  0.64916769  0.78993607     0.34900
H910        H  0.23241598  0.60448244  0.77478458     0.40000
H911        H  0.21766646  0.57871097  0.94440842     0.39700
H912        H  0.22292366  0.53460090  0.92796286     0.34500
C913        C  0.12296421  0.54537386  0.57316051    -0.27200
C914        C  0.14929678  0.52263838  0.57321929    -0.15300
C915        C  0.17090769  0.52683597  0.54651348     0.35400
C916        C  0.16406778  0.55046567  0.51798839    -0.26600
C917        C  0.13570349  0.56941522  0.51548923    -0.15900
C918        C  0.11603964  0.56914346  0.54465584     0.36500
N919        N  0.08795003  0.59030048  0.54407113    -0.90100
H920        H  0.10666663  0.54244157  0.59424078     0.17600
H921        H  0.17675161  0.54398483  0.99521574     0.17600
N922        N  0.19893743  0.50557953  0.54769690    -0.89200
H923        H  0.09373267  0.61919385  0.54333360     0.34900
H924        H  0.07566068  0.58594723  0.56707088     0.40000
H925        H  0.21126728  0.51481450  0.56942917     0.39700
H926        H  0.21243525  0.51174833  0.52595357     0.34500
C927        C  0.08348104  0.48066095  0.79731879    -0.27200
C928        C  0.10561453  0.48445527  0.82332943    -0.15300
C929        C  0.13261691  0.46246496  0.82149036     0.35400
C930        C  0.13816323  0.43983109  0.79223163    -0.26600
C931        C  0.11756210  0.43936212  0.76418280    -0.15900
C932        C  0.08903780  0.45803868  0.76797458     0.36500
N933        N  0.06635884  0.45602060  0.74110061    -0.90100
H934        H  0.06255210  0.49707601  0.79877252     0.17600
H935        H  0.16015203  0.42587995  0.78994825     0.17600
N936        N  0.15597504  0.46512209  0.84751860    -0.89200
H937        H  0.06197638  0.48368028  0.73230070     0.34900
H938        H  0.04620068  0.44521243  0.75198788     0.40000
H939        H  0.14636254  0.45800462  0.87155845     0.39700
H940        H  0.16369509  0.49328178  0.84847634     0.34500
C941        C  0.21571008  0.94463022  0.87841755    -0.27200
C942        C  0.19378892  0.91800937  0.86733027    -0.15300
C943        C  0.20387447  0.88433653  0.85032417     0.35400
C944        C  0.23504207  0.87934059  0.84345444    -0.26600
C945        C  0.25674962  0.90625963  0.85375810    -0.15900
C946        C  0.24707677  0.93920691  0.87179018     0.36500
N947        N  0.26889544  0.96767966  0.88228363    -0.90100
H948        H  0.20834561  0.97019095  0.89164968     0.17600
H949        H  0.24248357  0.85402891  0.82986211     0.17600
N950        N  0.18262843  0.85520501  0.83969037    -0.89200
H951        H  0.25810331  0.98962813  0.89581494     0.34900
H952        H  0.27798474  0.97993680  0.85970120     0.40000
H953        H  0.17423234  0.84215209  0.86224655     0.39700
H954        H  0.19364264  0.83382447  0.82563580     0.34500
C955        C  0.48440366  0.90206026  0.88036718    -0.27200
C956        C  0.50625235  0.90292437  0.85370195    -0.15300
C957        C  0.49700416  0.91338870  0.81974704     0.35400
C958        C  0.46624321  0.92281156  0.81324961    -0.26600
C959        C  0.44452509  0.92145970  0.84000813    -0.15900
C960        C  0.45388364  0.91098112  0.87395706     0.36500
N961        N  0.43307605  0.91004720  0.90275640    -0.90100
H962        H  0.49111965  0.89504125  0.90675849     0.17600
H963        H  0.45915487  0.93007198  0.78704308     0.17600
N964        N  0.01770061  0.90757775  0.79143759    -0.89200
H965        H  0.42204024  0.93635626  0.90433362     0.34900
H966        H  0.41682296  0.88866986  0.89872179     0.40000
H967        H  0.01842845  0.93375329  0.77846910     0.39700
H968        H  0.00917400  0.88736941  0.77400781     0.34500
C969        C  0.10361203  0.77395293  0.92749614    -0.27200
C970        C  0.10591023  0.79325110  0.89552877    -0.15300
C971        C  0.11083066  0.77172510  0.86510651     0.35400
C972        C  0.11155927  0.73172063  0.86697083    -0.26600
C973        C  0.10761553  0.71232414  0.89874872    -0.15900
C974        C  0.10448788  0.73401439  0.92956971     0.36500
N975        N  0.10088585  0.71566521  0.96282267    -0.90100
H976        H  0.10013397  0.79003603  0.95114038     0.17600
H977        H  0.11443217  0.71576547  0.84313511     0.17600
N978        N  0.11467950  0.79017459  0.83212042    -0.89200
H979        H  0.09679838  0.73562677  0.98236177     0.34900
H980        H  0.12174820  0.70278453  0.96899194     0.40000
H981        H  0.09761990  0.78022392  0.81533512     0.39700
H982        H  0.13588497  0.78215013  0.82200556     0.34500
C983        C  0.12975212  0.04447656  0.82011381    -0.27200
C984        C  0.10366427  0.02105894  0.81932547    -0.15300
C985        C  0.08308442  0.02418983  0.79140130     0.35400
C986        C  0.08974970  0.04883941  0.76389561    -0.26600
C987        C  0.11802765  0.06824177  0.76197772    -0.15900
C988        C  0.13752099  0.06765428  0.79137168     0.36500
N989        N  0.16622551  0.08769917  0.79082199    -0.90100
H990        H  0.14549216  0.04202513  0.84180171     0.17600
H991        H  0.07410624  0.04935143  0.74201941     0.17600
N992        N  0.05620480  0.00089156  0.78930812    -0.89200
H993        H  0.17830356  0.08304647  0.81391786     0.34900
H994        H  0.16135221  0.11681043  0.78980706     0.40000
H995        H  0.04311945  0.00533119  0.81167523     0.39700
H996        H  0.06299044  0.97241033  0.78887938     0.34500
C997        C  0.11175067  0.96977436  0.56674771    -0.27200
C998        C  0.13986138  0.98905858  0.56848785    -0.15300
C999        C  0.16238204  0.98165892  0.54333865     0.35400
C1000       C  0.15577776  0.95719562  0.51571307    -0.26600
C1001       C  0.12640950  0.94116135  0.51153338    -0.15900
C1002       C  0.10458823  0.94608505  0.53833695     0.36500
N1003       N  0.07441674  0.93004289  0.53517267    -0.90100
H1004       H  0.09452854  0.97542196  0.58632119     0.17600
H1005       H  0.17290823  0.95357388  0.49563320     0.17600
N1006       N  0.19162340  0.00003806  0.54436470    -0.89200
H1007       H  0.06074155  0.93795490  0.55621775     0.34900
H1008       H  0.07659673  0.90043364  0.53643971     0.40000
H1009       H  0.20191749  0.99341278  0.56817746     0.39700
H1010       H  0.18819363  0.02944445  0.54314562     0.34500
C1011       C  0.02085031  0.02610693  0.95948858    -0.27200
C1012       C  0.02449238  0.98675971  0.96226667    -0.15300
C1013       C  0.00185861  0.96517398  0.98026925     0.35400
C1014       C  0.47686070  0.98112948  0.99675975    -0.26600
C1015       C  0.46978389  0.01994969  0.48753672    -0.15900
C1016       C  0.49169505  0.04048966  0.96901169     0.36500
N1017       N  0.48544257  0.07931268  0.96003695    -0.90100
H1018       H  0.03755921  0.04289162  0.94529430     0.17600
H1019       H  0.45917592  0.96518543  0.50965203     0.17600
N1020       N  0.00511124  0.92486438  0.98476306    -0.89200
H1021       H  0.99132983  0.08998244  0.94225060     0.34900
H1022       H  0.50289027  0.09609060  0.46524653     0.40000
H1023       H  0.98591870  0.91158816  0.97393025     0.39700
H1024       H  0.50943843  0.92110515  0.01799689     0.34500
O1025       O  0.65139362  0.95340724  0.39069404    -0.82700
C1026       C  0.53820281  0.89383968  0.36445915     0.96700
O1027       O  0.55890864  0.91002774  0.34693696    -0.71800
O1028       O  0.60690741  0.95399540  0.33535800    -0.75400
Al1029     Al  0.60093128  0.90481293  0.35649179     1.49000
C1030       C  0.60205596  0.98744528  0.34575598     0.91900
O1031       O  0.57557245  0.98018392  0.44048725    -0.81600
O1032       O  0.59262537  0.90717774  0.47140368    -0.75200
Al1033     Al  0.61232392  0.96377199  0.41411408     1.90100
O1034       O  0.54431150  0.93139658  0.43430398    -0.74200
O1035       O  0.59905580  0.85089627  0.42407085    -0.74100
O1036       O  0.54497590  0.87541287  0.39193534    -0.79700
O1037       O  0.59741649  0.85093280  0.36716176    -0.77900
O1038       O  0.59526020  0.92102145  0.39971160    -1.14100
O1039       O  0.64263535  0.89915446  0.36366868    -0.73300
C1040       C  0.66110468  0.92335090  0.37565408     0.97400
C1041       C  0.54911496  0.96488674  0.44397921     0.93800
Al1042     Al  0.57238592  0.89306747  0.42818182     1.55600
O1043       O  0.59697586  0.99384524  0.37725011    -0.77900
C1044       C  0.60208666  0.83344586  0.39560447     0.98000
C1045       C  0.61649492  0.92646465  0.47743118     0.92900
O1046       O  0.63093573  0.94074235  0.45255806    -0.83200
O1047       O  0.63438134  0.56221140  0.45256604    -0.82700
C1048       C  0.54007703  0.60988835  0.36715337     0.96700
O1049       O  0.54762859  0.62733123  0.39464111    -0.71800
O1050       O  0.54705327  0.56915834  0.43539691    -0.75400
Al1051     Al  0.57501300  0.60848492  0.42994288     1.49000
C1052       C  0.55259527  0.53551439  0.44445537     0.91900
O1053       O  0.59997985  0.50920435  0.37760232    -0.81600
O1054       O  0.64422648  0.60468465  0.36336731    -0.75200
Al1055     Al  0.61542537  0.53918737  0.41442201     1.90100
O1056       O  0.60810607  0.55001818  0.33565262    -0.74200
O1057       O  0.59942987  0.65245618  0.36925106    -0.74100
O1058       O  0.56024867  0.59355010  0.34914025    -0.79700
O1059       O  0.60137625  0.65110753  0.42620528    -0.77900
O1060       O  0.59775936  0.58171787  0.40067526    -1.14100
O1061       O  0.59580415  0.59382717  0.47271277    -0.73300
C1062       C  0.62059522  0.57629217  0.47789768     0.97400
C1063       C  0.60451004  0.51618093  0.34602656     0.93800
Al1064     Al  0.60249617  0.59882249  0.35752281     1.55600
O1065       O  0.57948171  0.52167157  0.44130454    -0.77900
C1066       C  0.60405362  0.66933996  0.39799012     0.98000
C1067       C  0.66292852  0.58042994  0.37466394     0.92900
O1068       O  0.65368099  0.55053342  0.39041681    -0.83200
O1069       O  0.88210119  0.94661836  0.25538496    -0.82700
C1070       C  0.78862962  0.89987426  0.34254527     0.96700
O1071       O  0.79478674  0.88105681  0.31514341    -0.71800
O1072       O  0.79656835  0.93528840  0.27099235    -0.75400
Al1073     Al  0.82375081  0.89667204  0.27910282     1.49000
C1074       C  0.80123997  0.96933339  0.26295278     0.91900
O1075       O  0.84766493  0.99703590  0.33211978    -0.81600
O1076       O  0.89315616  0.90092224  0.34377499    -0.75200
Al1077     Al  0.86336593  0.96783343  0.29432131     1.90100
O1078       O  0.85957697  0.95631944  0.37263235    -0.74200
O1079       O  0.84613284  0.85433249  0.34127830    -0.74100
O1080       O  0.80973243  0.91529573  0.36003739    -0.79700
O1081       O  0.84925980  0.85340964  0.28469939    -0.77900
O1082       O  0.84637404  0.92453608  0.30779887    -1.14100
O1083       O  0.84598004  0.90916374  0.23665446    -0.73300
C1084       C  0.86970421  0.92900260  0.23095807     0.97400
C1085       C  0.85473193  0.99009740  0.36315274     0.93800
Al1086     Al  0.85155684  0.90798430  0.35106919     1.55600
O1087       O  0.82734591  0.98484302  0.26770567    -0.77900
C1088       C  0.85088020  0.83612309  0.31344465     0.98000
C1089       C  0.91142342  0.92646432  0.33352361     0.92900
O1090       O  0.90206137  0.95645098  0.31792225    -0.83200
O1091       O  0.90330621  0.54995042  0.32625537    -0.82700
C1092       C  0.79012146  0.61052496  0.34509574     0.96700
O1093       O  0.81057903  0.59555199  0.36374364    -0.71800
O1094       O  0.85786405  0.55261994  0.37881402    -0.75400
Al1095     Al  0.85260625  0.60075125  0.35560066     1.49000
C1096       C  0.85307685  0.51864014  0.36975604     0.91900
O1097       O  0.83051917  0.52150569  0.27287772    -0.81600
O1098       O  0.84847452  0.59432559  0.24133744    -0.75200
Al1099     Al  0.86557004  0.53915535  0.30099598     1.90100
O1100       O  0.79856977  0.56960330  0.27637316    -0.74200
O1101       O  0.85160169  0.65243956  0.28628604    -0.74100
O1102       O  0.79716119  0.62723139  0.31684520    -0.79700
O1103       O  0.84915041  0.65413189  0.34301688    -0.77900
O1104       O  0.84814847  0.58261568  0.31292122    -1.14100
O1105       O  0.89451064  0.60618464  0.34972295    -0.73300
C1106       C  0.91284189  0.58042550  0.34060979     0.97400
C1107       C  0.80401682  0.53580491  0.26820212     0.93800
Al1108     Al  0.82599015  0.60901421  0.28257709     1.55600
O1109       O  0.84855197  0.51067607  0.33834513    -0.77900
C1110       C  0.85323024  0.67109668  0.31418583     0.98000
C1111       C  0.87295579  0.57582176  0.23717710     0.92900
O1112       O  0.88574450  0.56080716  0.26290376    -0.83200
O1113       O  0.84976489  0.45649177  0.07512263    -0.82700
C1114       C  0.96283750  0.39457473  0.09794133     0.96700
O1115       O  0.94259423  0.41105485  0.11562985    -0.71800
O1116       O  0.89562372  0.45505634  0.12899727    -0.75400
Al1117     Al  0.90044728  0.40650390  0.10702070     1.49000
C1118       C  0.90017599  0.48880129  0.11893490     0.91900
O1119       O  0.92357515  0.48371076  0.02304025    -0.81600
O1120       O  0.90747672  0.41346849  0.49393132    -0.75200
Al1121     Al  0.88785502  0.46687656  0.05056435     1.90100
O1122       O  0.95538423  0.43561134  0.02865086    -0.74200
O1123       O  0.90094562  0.35422428  0.03842594    -0.74100
O1124       O  0.95557690  0.37792593  0.06975478    -0.79700
O1125       O  0.90319200  0.35308568  0.09532463    -0.77900
O1126       O  0.90517590  0.42381738  0.06397153    -1.14100
O1127       O  0.85865909  0.40136262  0.10110433    -0.73300
C1128       C  0.84041892  0.42665546  0.09082095     0.97400
C1129       C  0.95015970  0.46921954  0.01939080     0.93800
Al1130     Al  0.92743700  0.39678010  0.03450441     1.55600
O1131       O  0.90417142  0.49617941  0.08732308    -0.77900
C1132       C  0.89838244  0.33615200  0.06671454     0.98000
C1133       C  0.88275615  0.43134650  0.48904291     0.92900
O1134       O  0.86906012  0.44509035  0.51459072    -0.83200
O1135       O  0.86541654  0.06243913  0.00525472    -0.82700
C1136       C  0.95970021  0.10934278  0.09119398     0.96700
O1137       O  0.95218319  0.12848349  0.06435985    -0.71800
O1138       O  0.95122645  0.07522363  0.01923225    -0.75400
Al1139     Al  0.92329917  0.11288100  0.02882445     1.49000
C1140       C  0.94677346  0.04151000  0.01005327     0.91900
O1141       O  0.90175322  0.01028380  0.08021949    -0.81600
O1142       O  0.85538155  0.10457109  0.09511958    -0.75200
Al1143     Al  0.88512568  0.04036410  0.04353561     1.90100
O1144       O  0.89095369  0.04950474  0.12211357    -0.74200
O1145       O  0.90119765  0.15258064  0.09236283    -0.74100
O1146       O  0.93939681  0.09275363  0.10914148    -0.79700
O1147       O  0.89706693  0.15526653  0.03584391    -0.77900
O1148       O  0.90177277  0.08354725  0.05756298    -1.14100
O1149       O  0.90393249  0.10203013  0.48692083    -0.73300
C1150       C  0.88016012  0.08281122  0.48011806     0.97400
C1151       C  0.89607360  0.01621155  0.11171380     0.93800
Al1152     Al  0.89718996  0.09865083  0.10130725     1.55600
O1153       O  0.92112430  0.02509312  0.01586195    -0.77900
C1154       C  0.89625330  0.17169211  0.06497540     0.98000
C1155       C  0.83689575  0.07976046  0.08395989     0.92900
O1156       O  0.84659769  0.05006847  0.06829481    -0.83200
O1157       O  0.61864044  0.44216247  0.20499476    -0.82700
C1158       C  0.71348671  0.39718382  0.11920649     0.96700
O1159       O  0.70645574  0.37898524  0.14671117    -0.71800
O1160       O  0.70558592  0.43469206  0.18963714    -0.75400
Al1161     Al  0.67809865  0.39545757  0.18219336     1.49000
C1162       C  0.70022333  0.46831580  0.19855443     0.91900
O1163       O  0.65338282  0.49673911  0.13086502    -0.81600
O1164       O  0.60913799  0.40105775  0.11592530    -0.75200
Al1165     Al  0.63781073  0.46581402  0.16739213     1.90100
O1166       O  0.64529189  0.45637931  0.08880997    -0.74200
O1167       O  0.65477849  0.35364164  0.12001026    -0.74100
O1168       O  0.69299458  0.41344845  0.10154742    -0.79700
O1169       O  0.65238918  0.35213280  0.17679477    -0.77900
O1170       O  0.65554335  0.42332910  0.15328888    -1.14100
O1171       O  0.65629980  0.40802861  0.22466806    -0.73300
C1172       C  0.63178656  0.42616370  0.22986539     0.97400
C1173       C  0.64968957  0.48997063  0.09910676     0.93800
Al1174     Al  0.65093335  0.40740937  0.10988769     1.55600
O1175       O  0.67356548  0.48263059  0.19486714    -0.77900
C1176       C  0.65052679  0.33513690  0.14794996     0.98000
C1177       C  0.59052699  0.42545293  0.12706986     0.92900
O1178       O  0.59959680  0.45514196  0.14307885    -0.83200
O1179       O  0.59601768  0.05022082  0.14083681    -0.82700
C1180       C  0.70973028  0.10835430  0.11627108     0.96700
O1181       O  0.68872599  0.09290998  0.09870324    -0.71800
O1182       O  0.64003043  0.05069868  0.08591138    -0.75400
Al1183     Al  0.64682179  0.09912478  0.10801062     1.49000
C1184       C  0.64420706  0.01676017  0.09554418     0.91900
O1185       O  0.67022157  0.02126966  0.19079660    -0.81600
O1186       O  0.65427508  0.09465225  0.22232841    -0.75200
Al1187     Al  0.63434459  0.03888913  0.16445521     1.90100
O1188       O  0.70238468  0.06925538  0.18547816    -0.74200
O1189       O  0.64988520  0.15193866  0.17616731    -0.74100
O1190       O  0.70339510  0.12620068  0.14403118    -0.79700
O1191       O  0.65127446  0.15275496  0.11933483    -0.77900
O1192       O  0.65203818  0.08181772  0.15090339    -1.14100
O1193       O  0.60528002  0.10542292  0.11528047    -0.73300
C1194       C  0.58665095  0.08060206  0.12611320     0.97400
C1195       C  0.69697729  0.03547319  0.19403262     0.93800
Al1196     Al  0.67533788  0.10861202  0.17977549     1.55600
O1197       O  0.64938875  0.00930267  0.12694834    -0.77900
C1198       C  0.64764226  0.17012183  0.14795293     0.98000
C1199       C  0.62988821  0.07630061  0.22812838     0.92900
O1200       O  0.61585425  0.06122683  0.20333394    -0.83200
C1201       C  0.64656602  0.23230232  0.11668591    -0.27200
C1202       C  0.64350035  0.21224377  0.14815611    -0.15300
C1203       C  0.63934790  0.23313668  0.17925770     0.35400
C1204       C  0.64059294  0.27320224  0.17829039    -0.26600
C1205       C  0.64556078  0.29313283  0.14701121    -0.15900
C1206       C  0.64774883  0.27217773  0.11579208     0.36500
N1207       N  0.65223705  0.29098060  0.08306351    -0.90100
H1208       H  0.64936979  0.21699343  0.09248867     0.17600
H1209       H  0.63834710  0.28888053  0.20235691     0.17600
N1210       N  0.63457665  0.21383663  0.21185741    -0.89200
H1211       H  0.63430270  0.28320613  0.06650566     0.34900
H1212       H  0.67267465  0.28112803  0.07226728     0.40000
H1213       H  0.61346018  0.19981945  0.21036343     0.39700
H1214       H  0.63280287  0.23332974  0.23221486     0.34500
C1215       C  0.49976286  0.07260205  0.12572132    -0.27200
C1216       C  0.49210017  0.10310356  0.10354052    -0.15300
C1217       C  0.51538223  0.12698312  0.09077640     0.35400
C1218       C  0.54575427  0.11915262  0.09906428    -0.26600
C1219       C  0.55374292  0.08781174  0.12010116    -0.15900
C1220       C  0.53034448  0.06478727  0.13435511     0.36500
N1221       N  0.53752069  0.03352620  0.15716021    -0.90100
H1222       H  0.98278735  0.05945040  0.13751906     0.17600
H1223       H  0.56321015  0.13770127  0.08828028     0.17600
N1224       N  0.50843367  0.15920025  0.06923674    -0.89200
H1225       H  0.51764319  0.01891437  0.16443943     0.34900
H1226       H  0.54668645  0.04498763  0.17998560     0.40000
H1227       H  0.51986682  0.15595306  0.04556113     0.39700
H1228       H  0.51699907  0.18360064  0.08138193     0.34500
C1229       C  0.79533842  0.12083950  0.10683580    -0.27200
C1230       C  0.80377582  0.08658766  0.09030894    -0.15300
C1231       C  0.78057208  0.06048189  0.08088064     0.35400
C1232       C  0.74993075  0.06902478  0.08872232    -0.26600
C1233       C  0.74185277  0.10296207  0.10563294    -0.15900
C1234       C  0.76482934  0.12912059  0.11454332     0.36500
N1235       N  0.75732594  0.16433718  0.13113473    -0.90100
H1236       H  0.81251836  0.14163388  0.11413802     0.17600
H1237       H  0.73228920  0.04849872  0.08243626     0.17600
N1238       N  0.78798120  0.02518556  0.06412489    -0.89200
H1239       H  0.76526293  0.18661417  0.11541788     0.34900
H1240       H  0.76906815  0.16553227  0.15481161     0.40000
H1241       H  0.79591263  0.03176068  0.03920570     0.39700
H1242       H  0.76833790  0.00853557  0.06068250     0.34500
C1243       C  0.76804322  0.39514246  0.13543084    -0.27200
C1244       C  0.74601275  0.40192862  0.10962869    -0.15300
C1245       C  0.75527029  0.41731916  0.07717540     0.35400
C1246       C  0.78618613  0.42683097  0.07190920    -0.26600
C1247       C  0.80786589  0.42045805  0.09806073    -0.15900
C1248       C  0.79877686  0.40435854  0.13009164     0.36500
N1249       N  0.82081275  0.39789275  0.15729974    -0.90100
H1250       H  0.76117993  0.38383040  0.16049223     0.17600
H1251       H  0.79355857  0.43821213  0.04704018     0.17600
N1252       N  0.73344447  0.42302383  0.04968602    -0.89200
H1253       H  0.81035099  0.38612418  0.17930130     0.34900
H1254       H  0.82956564  0.42437649  0.16473412     0.40000
H1255       H  0.72524027  0.39625578  0.04231560     0.39700
H1256       H  0.74402227  0.43483192  0.02775544     0.34500
C1257       C  0.53631991  0.42489402  0.14675906    -0.27200
C1258       C  0.55784997  0.41843225  0.12048933    -0.15300
C1259       C  0.54847407  0.40188589  0.08882663     0.35400
C1260       C  0.51771816  0.39237314  0.08394192    -0.26600
C1261       C  0.49580619  0.39962575  0.10966885    -0.15900
C1262       C  0.50532421  0.41531207  0.14186054     0.36500
N1263       N  0.98256261  0.41808635  0.16827929    -0.90100
H1264       H  0.54383019  0.43666064  0.17135395     0.17600
H1265       H  0.51069607  0.38076215  0.05911553     0.17600
N1266       N  0.57019150  0.39558721  0.06134944    -0.89200
H1267       H  0.99304170  0.42955286  0.19036995     0.34900
H1268       H  0.97430332  0.39122283  0.17545320     0.40000
H1269       H  0.57840414  0.42217908  0.05332850     0.39700
H1270       H  0.55958221  0.38331415  0.03971804     0.34500
C1271       C  0.89719400  0.27388570  0.09753807    -0.27200
C1272       C  0.89251786  0.29443731  0.06662185    -0.15300
C1273       C  0.88496903  0.27430556  0.03595578     0.35400
C1274       C  0.88521375  0.23422031  0.03632712    -0.26600
C1275       C  0.89203896  0.21368688  0.06681674    -0.15900
C1276       C  0.89699030  0.23403324  0.09797909     0.36500
N1277       N  0.90294717  0.21458571  0.13007865    -0.90100
H1278       H  0.90238080  0.28870788  0.12150738     0.17600
H1279       H  0.87997632  0.22042045  0.51478178     0.17600
N1280       N  0.87881021  0.29585900  0.50674320    -0.89200
H1281       H  0.88640934  0.22291947  0.14812866     0.34900
H1282       H  0.92435170  0.22336148  0.13926798     0.40000
H1283       H  0.85877694  0.31118774  0.51154963     0.39700
H1284       H  0.87376023  0.27695799  0.48659621     0.34500
C1285       C  0.88321579  0.46647299  0.39592101    -0.27200
C1286       C  0.85622064  0.48801475  0.39582441    -0.15300
C1287       C  0.83524627  0.48383723  0.42323666     0.35400
C1288       C  0.84266476  0.46004053  0.45144690    -0.26600
C1289       C  0.87143316  0.44203178  0.45376946    -0.15900
C1290       C  0.89121984  0.44364649  0.42472419     0.36500
N1291       N  0.92040167  0.42490998  0.42566814    -0.90100
H1292       H  0.89921050  0.46979356  0.37458662     0.17600
H1293       H  0.82697906  0.45842067  0.47321850     0.17600
N1294       N  0.80701892  0.50475016  0.42291371    -0.89200
H1295       H  0.93268822  0.43033679  0.40286044     0.34900
H1296       H  0.91623443  0.39559021  0.42634207     0.40000
H1297       H  0.81242330  0.53366656  0.42506854     0.39700
H1298       H  0.79378745  0.49785293  0.44468834     0.34500
C1299       C  0.91269860  0.54594941  0.20016507    -0.27200
C1300       C  0.88475838  0.56586088  0.20213956    -0.15300
C1301       C  0.86557507  0.56664464  0.17259913     0.35400
C1302       C  0.87249708  0.54352314  0.14393264    -0.26600
C1303       C  0.89829317  0.51985726  0.14431819    -0.15900
C1304       C  0.91942909  0.52254508  0.17167051     0.36500
N1305       N  0.94677372  0.49991621  0.17116626    -0.90100
H1306       H  0.92812154  0.54589832  0.22222043     0.17600
H1307       H  0.85642857  0.54185986  0.12249358     0.17600
N1308       N  0.83799986  0.58859638  0.17249552    -0.89200
H1309       H  0.95994147  0.50496907  0.19340273     0.34900
H1310       H  0.95989759  0.50890648  0.14993250     0.40000
H1311       H  0.83890777  0.60736458  0.15136228     0.39700
H1312       H  0.81950681  0.57013646  0.16863467     0.34500
C1313       C  0.75600993  0.48068937  0.20322906    -0.27200
C1314       C  0.72612928  0.48889695  0.21490352    -0.15300
C1315       C  0.72238360  0.51056185  0.24531070     0.35400
C1316       C  0.74846763  0.52329076  0.26335219    -0.26600
C1317       C  0.77832171  0.51505909  0.25170178    -0.15900
C1318       C  0.78196474  0.49351859  0.22113964     0.36500
N1319       N  0.81154933  0.48511114  0.20717543    -0.90100
H1320       H  0.75921976  0.46369620  0.18004806     0.17600
H1321       H  0.74549080  0.54033467  0.28655797     0.17600
N1322       N  0.69229828  0.51825468  0.25858259    -0.89200
H1323       H  0.82313693  0.51069151  0.20264182     0.34900
H1324       H  0.82376633  0.46940344  0.22563996     0.40000
H1325       H  0.68145572  0.53646569  0.24093603     0.39700
H1326       H  0.69364613  0.53303684  0.28210072     0.34500
C1327       C  0.75281450  0.02632716  0.19988666    -0.27200
C1328       C  0.72301711  0.01480571  0.20964072    -0.15300
C1329       C  0.71945326  0.98937208  0.23772817     0.35400
C1330       C  0.74534229  0.97685297  0.25570947    -0.26600
C1331       C  0.77510017  0.98883683  0.24633536    -0.15900
C1332       C  0.77885931  0.01355721  0.21782165     0.36500
N1333       N  0.80892394  0.02500304  0.20671578    -0.90100
H1334       H  0.75578948  0.04588176  0.17825784     0.17600
H1335       H  0.74215201  0.95720486  0.27723268     0.17600
N1336       N  0.68998472  0.97660924  0.24926713    -0.89200
H1337       H  0.80756827  0.04356036  0.18543770     0.34900
H1338       H  0.82019631  0.00071173  0.19790041     0.40000
H1339       H  0.67922883  0.96241106  0.22875776     0.39700
H1340       H  0.67691874  0.00031774  0.25604556     0.34500
C1341       C  0.85784463  0.77416137  0.28270246    -0.27200
C1342       C  0.85607822  0.79416911  0.31425605    -0.15300
C1343       C  0.85724320  0.77332753  0.34582459     0.35400
C1344       C  0.85762242  0.73330320  0.34495982    -0.26600
C1345       C  0.85739196  0.71325692  0.31339319    -0.15900
C1346       C  0.85862727  0.73420324  0.28195800     0.36500
N1347       N  0.85993512  0.71523675  0.24907166    -0.90100
H1348       H  0.85766678  0.78949282  0.25819976     0.17600
H1349       H  0.85735048  0.71769200  0.36929800     0.17600
N1350       N  0.85734799  0.79261174  0.37874820    -0.89200
H1351       H  0.87965524  0.72443194  0.23610815     0.34900
H1352       H  0.84095993  0.72360025  0.23436775     0.40000
H1353       H  0.87798856  0.80762840  0.38057038     0.39700
H1354       H  0.85722726  0.77309009  0.39932665     0.34500
C1355       C  0.85787727  0.94323079  0.16936078    -0.27200
C1356       C  0.88033284  0.93798666  0.19508650    -0.15300
C1357       C  0.91038660  0.95198968  0.18854836     0.35400
C1358       C  0.91595239  0.97506691  0.15937898    -0.26600
C1359       C  0.89233572  0.98419189  0.13628941    -0.15900
C1360       C  0.86345404  0.96672632  0.14028366     0.36500
N1361       N  0.83916456  0.97558755  0.11638028    -0.90100
H1362       H  0.83490260  0.93260430  0.17382109     0.17600
H1363       H  0.93835795  0.98785555  0.15593852     0.17600
N1364       N  0.93555119  0.94411970  0.21138752    -0.89200
H1365       H  0.81901179  0.96143734  0.12347608     0.34900
H1366       H  0.84542574  0.96508582  0.09201873     0.40000
H1367       H  0.93655033  0.91473739  0.21566320     0.39700
H1368       H  0.93238950  0.95794414  0.23506311     0.34500
C1369       C  0.89692535  0.05517872  0.42492274    -0.27200
C1370       C  0.87282692  0.07088436  0.44415402    -0.15300
C1371       C  0.84232780  0.06416391  0.43302308     0.35400
C1372       C  0.83664291  0.03985245  0.40475008    -0.26600
C1373       C  0.86078887  0.02136025  0.38788755    -0.15900
C1374       C  0.89122333  0.03004926  0.39730605     0.36500
N1375       N  0.91623264  0.01168841  0.37991716    -0.90100
H1376       H  0.92029767  0.05955247  0.43355642     0.17600
H1377       H  0.81324171  0.03359266  0.39732467     0.17600
N1378       N  0.81673169  0.08100927  0.45034826    -0.89200
H1379       H  0.93716190  0.01991390  0.39077989     0.34900
H1380       H  0.91633354  0.02128689  0.35415787     0.40000
H1381       H  0.82003716  0.11049549  0.45082134     0.39700
H1382       H  0.81571077  0.07100400  0.47591190     0.34500
C1383       C  0.99905332  0.52820338  0.45722031    -0.27200
C1384       C  0.52680297  0.51449973  0.46081199    -0.15300
C1385       C  0.53077626  0.49182493  0.49078305     0.35400
C1386       C  0.50508001  0.47843719  0.50885193    -0.26600
C1387       C  0.97704478  0.49186185  0.50484562    -0.15900
C1388       C  0.97325138  0.51527633  0.47530950     0.36500
N1389       N  0.94363213  0.52549780  0.46239918    -0.90100
H1390       H  0.99563695  0.54636955  0.43469051     0.17600
H1391       H  0.50995472  0.46612875  0.04061033     0.17600
N1392       N  0.56049178  0.48333214  0.50444096    -0.89200
H1393       H  0.93207612  0.54049909  0.48177677     0.34900
H1394       H  0.93146312  0.50061561  0.45684406     0.40000
H1395       H  0.57183756  0.50890358  0.50967116     0.39700
H1396       H  0.57279092  0.46832778  0.48566750     0.34500
C1397       C  0.99968964  0.57890398  0.33589303    -0.27200
C1398       C  0.50748552  0.60594351  0.35764322    -0.15300
C1399       C  0.98355645  0.62102019  0.38245124     0.35400
C1400       C  0.95328492  0.61214627  0.37469943    -0.26600
C1401       C  0.94560733  0.58676804  0.34793015    -0.15900
C1402       C  0.96905927  0.57011378  0.32808266     0.36500
N1403       N  0.96180686  0.54493959  0.29983282    -0.90100
H1404       H  0.51623708  0.55781986  0.32426614     0.17600
H1405       H  0.93548345  0.62520978  0.39019144     0.17600
N1406       N  0.98892876  0.64710579  0.41037245    -0.89200
H1407       H  0.98177183  0.53473233  0.28820751     0.34900
H1408       H  0.95049097  0.56098910  0.28086325     0.40000
H1409       H  0.00187825  0.67006001  0.40111596     0.39700
H1410       H  0.00060199  0.63309115  0.43036616     0.34500
C1411       C  0.70394207  0.61897969  0.34691110    -0.27200
C1412       C  0.69581682  0.58805871  0.36854386    -0.15300
C1413       C  0.71914893  0.56663382  0.38445729     0.35400
C1414       C  0.74980481  0.57547834  0.37743847    -0.26600
C1415       C  0.75778263  0.60576649  0.35514361    -0.15900
C1416       C  0.73453107  0.62819046  0.34042678     0.36500
N1417       N  0.74177808  0.66060445  0.31921634    -0.90100
H1418       H  0.68648588  0.63642935  0.33481323     0.17600
H1419       H  0.76741959  0.55786201  0.38894963     0.17600
N1420       N  0.71199932  0.53615302  0.40794222    -0.89200
H1421       H  0.73202196  0.68463697  0.33065981     0.34900
H1422       H  0.73161716  0.65677134  0.29484268     0.40000
H1423       H  0.72214141  0.54219926  0.43193644     0.39700
H1424       H  0.72183650  0.51121731  0.39832181     0.34500
C1425       C  0.62517274  0.54812947  0.07472436    -0.27200
C1426       C  0.64886287  0.52122336  0.07340698    -0.15300
C1427       C  0.66837483  0.52051727  0.04447393     0.35400
C1428       C  0.66204938  0.54399313  0.01583367    -0.26600
C1429       C  0.63565858  0.56700729  0.01480771    -0.15900
C1430       C  0.61831222  0.57117865  0.04557972     0.36500
N1431       N  0.59262872  0.59659535  0.04637788    -0.90100
H1432       H  0.61048177  0.54892940  0.09739724     0.17600
H1433       H  0.67590898  0.54801324  0.49383822     0.17600
N1434       N  0.69350103  0.49425065  0.04353934    -0.89200
H1435       H  0.60112569  0.62425427  0.04326730     0.34900
H1436       H  0.58198463  0.59567477  0.07071069     0.40000
H1437       H  0.70873974  0.50192170  0.06329460     0.39700
H1438       H  0.70547297  0.49675478  0.02010134     0.34500
C1439       C  0.58538881  0.47525232  0.29799522    -0.27200
C1440       C  0.60867425  0.48450680  0.32147146    -0.15300
C1441       C  0.63719517  0.46576191  0.31905286     0.35400
C1442       C  0.64284648  0.44098431  0.29138416    -0.26600
C1443       C  0.62085580  0.43542729  0.26530571    -0.15900
C1444       C  0.59114556  0.45050849  0.27013600     0.36500
N1445       N  0.56733638  0.44263657  0.24552044    -0.90100
H1446       H  0.56321541  0.48877765  0.30019561     0.17600
H1447       H  0.66575031  0.42977202  0.28818363     0.17600
N1448       N  0.66168026  0.47374798  0.34271911    -0.89200
H1449       H  0.55992222  0.46850185  0.23497169     0.34900
H1450       H  0.54897403  0.43035426  0.25892151     0.40000
H1451       H  0.65412895  0.46796488  0.36797378     0.39700
H1452       H  0.66711839  0.50266375  0.34079845     0.34500
C1453       C  0.71512256  0.94657637  0.37261176    -0.27200
C1454       C  0.69431656  0.91622371  0.37048155    -0.15300
C1455       C  0.70529041  0.87950227  0.36129348     0.35400
C1456       C  0.73611813  0.87486405  0.35201114    -0.26600
C1457       C  0.75659498  0.90540380  0.35341756    -0.15900
C1458       C  0.74614179  0.94159272  0.36411937     0.36500
N1459       N  0.76684484  0.97348978  0.36509522    -0.90100
H1460       H  0.70699551  0.97459481  0.37973078     0.17600
H1461       H  0.74435827  0.84712223  0.34414665     0.17600
N1462       N  0.68523324  0.84692245  0.36156628    -0.89200
H1463       H  0.75562749  0.99796105  0.37369642     0.34900
H1464       H  0.77392694  0.97904171  0.33960235     0.40000
H1465       H  0.67846810  0.84223672  0.38731283     0.39700
H1466       H  0.69681570  0.82240325  0.35372447     0.34500
C1467       C  0.98416483  0.90305447  0.38157667    -0.27200
C1468       C  0.00556688  0.90222064  0.35445399    -0.15300
C1469       C  0.99590261  0.91060401  0.32023577     0.35400
C1470       C  0.96517516  0.92007655  0.31391657    -0.26600
C1471       C  0.94396779  0.92080255  0.34118909    -0.15900
C1472       C  0.95365740  0.91207099  0.37537243     0.36500
N1473       N  0.93319080  0.91287851  0.40448626    -0.90100
H1474       H  0.99126014  0.89736774  0.40808037     0.17600
H1475       H  0.95769912  0.92575588  0.28753839     0.17600
N1476       N  0.51787448  0.90481311  0.29235427    -0.89200
H1477       H  0.92260626  0.93948811  0.40532849     0.34900
H1478       H  0.91648232  0.89186015  0.40134362     0.40000
H1479       H  0.51914072  0.93115448  0.27968340     0.39700
H1480       H  0.50910353  0.88495230  0.27475742     0.34500
C1481       C  0.60911313  0.77240747  0.42792064    -0.27200
C1482       C  0.60855086  0.79184972  0.39591772    -0.15300
C1483       C  0.61180957  0.77064795  0.36501731     0.35400
C1484       C  0.61230265  0.73073370  0.36651185    -0.26600
C1485       C  0.60987649  0.71115408  0.39834892    -0.15900
C1486       C  0.61005618  0.73244578  0.42957542     0.36500
N1487       N  0.61003678  0.71367032  0.46287193    -0.90100
H1488       H  0.60767471  0.78834370  0.45192565     0.17600
H1489       H  0.61336314  0.71504045  0.34233415     0.17600
N1490       N  0.61389119  0.78929232  0.33191158    -0.89200
H1491       H  0.60900985  0.73349955  0.48307133     0.34900
H1492       H  0.63101343  0.69973173  0.46549146     0.40000
H1493       H  0.59591256  0.77953474  0.31630709     0.39700
H1494       H  0.63447221  0.78123070  0.32026863     0.34500
C1495       C  0.63373329  0.03764364  0.31924707    -0.27200
C1496       C  0.60519503  0.01942703  0.32121301    -0.15300
C1497       C  0.58229035  0.02853355  0.29675278     0.35400
C1498       C  0.58976979  0.05205481  0.26843124    -0.26600
C1499       C  0.61964140  0.06655513  0.26394792    -0.15900
C1500       C  0.64116290  0.06152070  0.29102566     0.36500
N1501       N  0.67134594  0.07761726  0.28829161    -0.90100
H1502       H  0.65103271  0.03107719  0.33857071     0.17600
H1503       H  0.57272179  0.05653103  0.24834586     0.17600
N1504       N  0.55169932  0.01356896  0.29921013    -0.89200
H1505       H  0.68475362  0.06976320  0.30965482     0.34900
H1506       H  0.66907004  0.10721895  0.28934258     0.40000
H1507       H  0.54863949  0.99747632  0.32182962     0.39700
H1508       H  0.54829647  0.99528573  0.27815962     0.34500
C1509       C  0.61137922  0.96792476  0.06785822    -0.27200
C1510       C  0.64011639  0.98567221  0.07018543    -0.15300
C1511       C  0.66276765  0.97682733  0.04557491     0.35400
C1512       C  0.65576369  0.95238098  0.01797033    -0.26600
C1513       C  0.62598510  0.93757198  0.01336093    -0.15900
C1514       C  0.60393713  0.94411199  0.03959080     0.36500
N1515       N  0.57335558  0.92952673  0.03595193    -0.90100
H1516       H  0.59399933  0.97478208  0.08691676     0.17600
H1517       H  0.67305192  0.94769308  0.99825974     0.17600
N1518       N  0.69257540  0.99375815  0.04708984    -0.89200
H1519       H  0.55960334  0.93845951  0.05659318     0.34900
H1520       H  0.57455635  0.89986113  0.03764791     0.40000
H1521       H  0.70228499  0.98698063  0.07118411     0.39700
H1522       H  0.69013349  0.02330870  0.04555785     0.34500
C1523       C  0.51712423  0.02292890  0.45346002    -0.27200
C1524       C  0.52274250  0.98448125  0.46029203    -0.15300
C1525       C  0.50102426  0.96342284  0.48012044     0.35400
C1526       C  0.97605640  0.98508658  0.49334643    -0.26600
C1527       C  0.97260198  0.02249374  0.99203293    -0.15900
C1528       C  0.99659168  0.04634487  0.47557012     0.36500
N1529       N  0.99433369  0.08696799  0.47313793    -0.90100
H1530       H  0.53279436  0.03900630  0.43720424     0.17600
H1531       H  0.95947034  0.96628760  0.00874527     0.17600
N1532       N  0.50565094  0.92379865  0.48734040    -0.89200
H1533       H  0.48324608  0.08107563  0.42988008     0.34900
H1534       H  0.01069333  0.09789585  0.97970665     0.40000
H1535       H  0.48692868  0.90870308  0.47747031     0.39700
H1536       H  0.00430573  0.91997640  0.50890038     0.34500
O1537       O  0.65226400  0.95389379  0.89139200    -0.82700
C1538       C  0.53865933  0.89668540  0.86334696     0.96700
O1539       O  0.55969532  0.91265976  0.84615547    -0.71800
O1540       O  0.60848168  0.95584431  0.83586807    -0.75400
Al1541     Al  0.60166774  0.90644864  0.85627368     1.49000
C1542       C  0.60402750  0.98933041  0.84646931     0.91900
O1543       O  0.57661492  0.98070010  0.94147659    -0.81600
O1544       O  0.59239560  0.90759171  0.97130951    -0.75200
Al1545     Al  0.61329214  0.96435470  0.91474762     1.90100
O1546       O  0.54455386  0.93289777  0.93394308    -0.74200
O1547       O  0.59856031  0.85207813  0.92327788    -0.74100
O1548       O  0.54510968  0.87770594  0.89063827    -0.79700
O1549       O  0.59733986  0.85226109  0.86636666    -0.77900
O1550       O  0.59574794  0.92226670  0.89958007    -1.14100
O1551       O  0.64327325  0.89999702  0.86392485    -0.73300
C1552       C  0.66185893  0.92395365  0.87611052     0.97400
C1553       C  0.55000677  0.96572384  0.94493148     0.93800
Al1554     Al  0.57232455  0.89437073  0.92753009     1.55600
O1555       O  0.59871587  0.99554512  0.87801991    -0.77900
C1556       C  0.60124028  0.83451175  0.89486546     0.98000
C1557       C  0.61666755  0.92604395  0.97758815     0.92900
O1558       O  0.63144992  0.93996744  0.95280717    -0.83200
O1559       O  0.63630948  0.56326682  0.95396736    -0.82700
C1560       C  0.53882338  0.60709275  0.87232188     0.96700
O1561       O  0.54669361  0.62538802  0.89928116    -0.71800
O1562       O  0.54892327  0.56874432  0.94115518    -0.75400
Al1563     Al  0.57581692  0.60843657  0.93368903     1.49000
C1564       C  0.55486301  0.53517563  0.94992724     0.91900
O1565       O  0.60037182  0.50904640  0.88041458    -0.81600
O1566       O  0.64314096  0.60604405  0.86499893    -0.75200
Al1567     Al  0.61648584  0.53960188  0.91683067     1.90100
O1568       O  0.60732463  0.55015342  0.83844681    -0.74200
O1569       O  0.59706744  0.65239621  0.87140468    -0.74100
O1570       O  0.55900015  0.59180519  0.85353419    -0.79700
O1571       O  0.60108993  0.65186860  0.92814146    -0.77900
O1572       O  0.59793478  0.58179693  0.90370975    -1.14100
O1573       O  0.59845699  0.59500549  0.97564825    -0.73300
C1574       C  0.62333900  0.57732991  0.97983973     0.97400
C1575       C  0.60403483  0.51623250  0.84865883     0.93800
Al1576     Al  0.60125777  0.59875176  0.86032291     1.55600
O1577       O  0.58161852  0.52136309  0.94548958    -0.77900
C1578       C  0.60221170  0.66986726  0.89967910     0.98000
C1579       C  0.66236466  0.58208671  0.87582556     0.92900
O1580       O  0.65379558  0.55173763  0.89136433    -0.83200
O1581       O  0.88200596  0.94548187  0.75305085    -0.82700
C1582       C  0.78953893  0.90183904  0.84358862     0.96700
O1583       O  0.79524122  0.88297897  0.81615663    -0.71800
O1584       O  0.79586996  0.93766063  0.77192718    -0.75400
Al1585     Al  0.82309201  0.89845426  0.77919272     1.49000
C1586       C  0.80117729  0.97115351  0.76232156     0.91900
O1587       O  0.84923226  0.99994009  0.82855260    -0.81600
O1588       O  0.89386870  0.90406462  0.84242814    -0.75200
Al1589     Al  0.86406678  0.96901646  0.79157200     1.90100
O1590       O  0.85978352  0.96016073  0.87050186    -0.74200
O1591       O  0.84755757  0.85713992  0.84124203    -0.74100
O1592       O  0.81085193  0.91788009  0.86015535    -0.79700
O1593       O  0.84860211  0.85501096  0.78449910    -0.77900
O1594       O  0.84665057  0.92654971  0.80673786    -1.14100
O1595       O  0.84404126  0.91024438  0.73561993    -0.73300
C1596       C  0.86835494  0.92858016  0.72900621     0.97400
C1597       C  0.85483760  0.99362696  0.86009532     0.93800
Al1598     Al  0.85247246  0.91103201  0.85018379     1.55600
O1599       O  0.82788133  0.98564463  0.76501408    -0.77900
C1600       C  0.85144834  0.83839699  0.81351979     0.98000
C1601       C  0.91220030  0.92908426  0.83154247     0.92900
O1602       O  0.90294406  0.95850274  0.81507843    -0.83200
O1603       O  0.90187900  0.55171259  0.82532859    -0.82700
C1604       C  0.78950955  0.61392064  0.84637796     0.96700
O1605       O  0.80989069  0.59826649  0.86476294    -0.71800
O1606       O  0.85724099  0.55421255  0.87883333    -0.75400
Al1607     Al  0.85203724  0.60284640  0.85616439     1.49000
C1608       C  0.85212416  0.52040590  0.86941829     0.91900
O1609       O  0.82742464  0.52550267  0.77348486    -0.81600
O1610       O  0.84639049  0.59797418  0.74150989    -0.75200
Al1611     Al  0.86341432  0.54185599  0.80076707     1.90100
O1612       O  0.79636665  0.57443062  0.77733838    -0.74200
O1613       O  0.85146247  0.65508672  0.78744495    -0.74100
O1614       O  0.79684083  0.63138161  0.81859754    -0.79700
O1615       O  0.84910387  0.65653760  0.84419845    -0.77900
O1616       O  0.84679820  0.58540542  0.81337157    -1.14100
O1617       O  0.89392678  0.60765254  0.84957130    -0.73300
C1618       C  0.91199681  0.58187399  0.83981903     0.97400
C1619       C  0.80108105  0.54048210  0.76910872     0.93800
Al1620     Al  0.82478142  0.61278663  0.78356332     1.55600
O1621       O  0.84674121  0.51311995  0.83807037    -0.77900
C1622       C  0.85349330  0.67353894  0.81542200     0.98000
C1623       C  0.87067275  0.57912015  0.73709315     0.92900
O1624       O  0.88326245  0.56352324  0.76262059    -0.83200
O1625       O  0.85076507  0.45841273  0.57695670    -0.82700
C1626       C  0.96387750  0.39766226  0.59905727     0.96700
O1627       O  0.94367565  0.41371934  0.61712018    -0.71800
O1628       O  0.89662151  0.45777499  0.63055837    -0.75400
Al1629     Al  0.90148124  0.40873980  0.60900223     1.49000
C1630       C  0.90063994  0.49153508  0.62009085     0.91900
O1631       O  0.92433641  0.48524498  0.52434691    -0.81600
O1632       O  0.90603419  0.41188823  0.99200121    -0.75200
Al1633     Al  0.88868324  0.46845308  0.55207673     1.90100
O1634       O  0.95659548  0.43774764  0.53082293    -0.74200
O1635       O  0.90238230  0.35573346  0.54043706    -0.74100
O1636       O  0.95631568  0.37979560  0.57171767    -0.79700
O1637       O  0.90428677  0.35485926  0.59742024    -0.77900
O1638       O  0.90610511  0.42563249  0.56582825    -1.14100
O1639       O  0.85950971  0.40360849  0.60362257    -0.73300
C1640       C  0.84136582  0.42909075  0.59339099     0.97400
C1641       C  0.95115328  0.47124184  0.52131681     0.93800
Al1642     Al  0.92863868  0.39858541  0.53650017     1.55600
O1643       O  0.90484275  0.49846706  0.58842685    -0.77900
C1644       C  0.90002708  0.33760538  0.56876538     0.98000
C1645       C  0.88157342  0.43036014  0.98709604     0.92900
O1646       O  0.86811292  0.44446975  0.01263157    -0.83200
O1647       O  0.86582598  0.06688000  0.50421733    -0.82700
C1648       C  0.95810088  0.11069399  0.59507507     0.96700
O1649       O  0.95169093  0.12942634  0.56767488    -0.71800
O1650       O  0.95254060  0.07597678  0.52235246    -0.75400
Al1651     Al  0.92433524  0.11385986  0.53059200     1.49000
C1652       C  0.94755007  0.04328045  0.51070592     0.91900
O1653       O  0.90012225  0.00967704  0.57763589    -0.81600
O1654       O  0.85391608  0.10370656  0.59382239    -0.75200
Al1655     Al  0.88464682  0.04182955  0.54161902     1.90100
O1656       O  0.88930059  0.04781273  0.62053800    -0.74200
O1657       O  0.89918934  0.15227684  0.59343440    -0.74100
O1658       O  0.93740898  0.09264871  0.61114088    -0.79700
O1659       O  0.89798678  0.15633306  0.53671340    -0.77900
O1660       O  0.90149243  0.08409381  0.55772836    -1.14100
O1661       O  0.90097567  0.10079788  0.98661934    -0.73300
C1662       C  0.87777127  0.08020394  0.98076459     0.97400
C1663       C  0.89427190  0.01473442  0.60928991     0.93800
Al1664     Al  0.89546659  0.09796167  0.60141575     1.55600
O1665       O  0.92125183  0.02758138  0.51421621    -0.77900
C1666       C  0.89632069  0.17222686  0.56609013     0.98000
C1667       C  0.83560116  0.07945658  0.58150343     0.92900
O1668       O  0.84557554  0.05019459  0.56552907    -0.83200
O1669       O  0.61646585  0.44382111  0.70369190    -0.82700
C1670       C  0.71407398  0.39973349  0.62115689     0.96700
O1671       O  0.70658477  0.38135342  0.64843171    -0.71800
O1672       O  0.70330958  0.43684296  0.69130736    -0.75400
Al1673     Al  0.67669659  0.39714824  0.68273228     1.49000
C1674       C  0.69769745  0.47065462  0.69943214     0.91900
O1675       O  0.65239669  0.49774834  0.62963690    -0.81600
O1676       O  0.60957129  0.40152571  0.61328650    -0.75200
Al1677     Al  0.63631711  0.46700979  0.66605395     1.90100
O1678       O  0.64589446  0.45697794  0.58762258    -0.74200
O1679       O  0.65576249  0.35483199  0.61966179    -0.74100
O1680       O  0.69376152  0.41526983  0.60271883    -0.79700
O1681       O  0.65172242  0.35310143  0.67631966    -0.77900
O1682       O  0.65469701  0.42456656  0.65286005    -1.14100
O1683       O  0.65360569  0.40959169  0.72440522    -0.73300
C1684       C  0.62933514  0.42840402  0.72910752     0.97400
C1685       C  0.64917921  0.49073072  0.59785779     0.93800
Al1686     Al  0.65159623  0.40841076  0.60924414     1.55600
O1687       O  0.67116938  0.48480843  0.69443351    -0.77900
C1688       C  0.65069967  0.33621050  0.64734010     0.98000
C1689       C  0.59061244  0.42590733  0.62377874     0.92900
O1690       O  0.59903991  0.45538403  0.64054011    -0.83200
O1691       O  0.59521224  0.05145188  0.64084745    -0.82700
C1692       C  0.70866719  0.10809982  0.61461212     0.96700
O1693       O  0.68725543  0.09308536  0.59736608    -0.71800
O1694       O  0.63801493  0.05173134  0.58561774    -0.75400
Al1695     Al  0.64554655  0.10001371  0.60745137     1.49000
C1696       C  0.64300897  0.01794518  0.59507828     0.91900
O1697       O  0.66957051  0.02215134  0.69022362    -0.81600
O1698       O  0.65371156  0.09679819  0.72168937    -0.75200
Al1699     Al  0.63377818  0.03994330  0.66409720     1.90100
O1700       O  0.70176479  0.07020185  0.68575481    -0.74200
O1701       O  0.64976239  0.15341200  0.67483525    -0.74100
O1702       O  0.70295598  0.12591437  0.64262232    -0.79700
O1703       O  0.65076082  0.15359813  0.61806326    -0.77900
O1704       O  0.65133162  0.08283249  0.65041352    -1.14100
O1705       O  0.60398651  0.10692767  0.61559081    -0.73300
C1706       C  0.58550526  0.08195390  0.62656321     0.97400
C1707       C  0.69606066  0.03659331  0.69469851     0.93800
Al1708     Al  0.67488783  0.10972510  0.67893901     1.55600
O1709       O  0.64876661  0.01056871  0.62636569    -0.77900
C1710       C  0.64726941  0.17126085  0.64649147     0.98000
C1711       C  0.62965300  0.07790157  0.72781932     0.92900
O1712       O  0.61572797  0.06211204  0.70326423    -0.83200
C1713       C  0.64831199  0.23351593  0.61536204    -0.27200
C1714       C  0.64299748  0.21334389  0.64635972    -0.15300
C1715       C  0.63641415  0.23407246  0.67697137     0.35400
C1716       C  0.63804424  0.27415614  0.67640131    -0.26600
C1717       C  0.64553815  0.29421509  0.64584115    -0.15900
C1718       C  0.64971043  0.27339102  0.61477830     0.36500
N1719       N  0.65651988  0.29231251  0.58262665    -0.90100
H1720       H  0.65284038  0.21828819  0.59146221     0.17600
H1721       H  0.63401476  0.28973949  0.70021343     0.17600
N1722       N  0.62859395  0.21451312  0.70866406    -0.89200
H1723       H  0.63971026  0.28480801  0.56451539     0.34900
H1724       H  0.67756678  0.28230866  0.57360042     0.40000
H1725       H  0.60776440  0.20052757  0.70451648     0.39700
H1726       H  0.62490213  0.23389319  0.72880457     0.34500
C1727       C  0.49885479  0.06995967  0.62254191    -0.27200
C1728       C  0.49055497  0.10286800  0.60390649    -0.15300
C1729       C  0.51310272  0.12984464  0.59532726     0.35400
C1730       C  0.54358579  0.12279972  0.60411503    -0.26600
C1731       C  0.55236195  0.08891985  0.62115171    -0.15900
C1732       C  0.52948779  0.06263159  0.63132572     0.36500
N1733       N  0.53728187  0.02829338  0.64972559    -0.90100
H1734       H  0.98085058  0.05867945  0.63940785     0.17600
H1735       H  0.56053741  0.14388159  0.59670134     0.17600
N1736       N  0.50524078  0.16439879  0.57757262    -0.89200
H1737       H  0.51786108  0.01140586  0.65379609     0.34900
H1738       H  0.54512944  0.03618071  0.67437526     0.40000
H1739       H  0.51757094  0.16550196  0.55429681     0.39700
H1740       H  0.51221472  0.18730698  0.59298585     0.34500
C1741       C  0.79408677  0.12044638  0.60418700    -0.27200
C1742       C  0.80241930  0.08651591  0.58710180    -0.15300
C1743       C  0.77910898  0.06101818  0.57671955     0.35400
C1744       C  0.74848361  0.06941982  0.58503946    -0.26600
C1745       C  0.74059544  0.10279304  0.60306093    -0.15900
C1746       C  0.76367995  0.12867563  0.61218624     0.36500
N1747       N  0.75640757  0.16354932  0.62948707    -0.90100
H1748       H  0.81130642  0.14100048  0.61190796     0.17600
H1749       H  0.73076493  0.04923511  0.57832194     0.17600
N1750       N  0.78640374  0.02656670  0.55847982    -0.89200
H1751       H  0.76430704  0.18612717  0.61411397     0.34900
H1752       H  0.76830096  0.16415593  0.65308916     0.40000
H1753       H  0.79466485  0.03435885  0.53395024     0.39700
H1754       H  0.76665367  0.01039537  0.55409843     0.34500
C1755       C  0.76867440  0.39870536  0.63836556    -0.27200
C1756       C  0.74676167  0.40537801  0.61236090    -0.15300
C1757       C  0.75619065  0.42134400  0.58016282     0.35400
C1758       C  0.78711825  0.43077214  0.57510349    -0.26600
C1759       C  0.80877484  0.42371050  0.60107867    -0.15900
C1760       C  0.79951177  0.40788879  0.63316536     0.36500
N1761       N  0.82147758  0.40155943  0.66046846    -0.90100
H1762       H  0.76165273  0.38725713  0.66332063     0.17600
H1763       H  0.79456028  0.44236069  0.55034054     0.17600
N1764       N  0.73454220  0.42756433  0.55257454    -0.89200
H1765       H  0.81087595  0.39021324  0.68257552     0.34900
H1766       H  0.83040073  0.42804615  0.66762185     0.40000
H1767       H  0.72658140  0.40089496  0.54456117     0.39700
H1768       H  0.74518289  0.44001833  0.53099316     0.34500
C1769       C  0.53648089  0.42497817  0.64235851    -0.27200
C1770       C  0.55814470  0.41914685  0.61620571    -0.15300
C1771       C  0.54899451  0.40397228  0.58390261     0.35400
C1772       C  0.51822553  0.39448664  0.57854728    -0.26600
C1773       C  0.49628875  0.40033973  0.60459010    -0.15900
C1774       C  0.50562307  0.41543244  0.63709337     0.36500
N1775       N  0.98500422  0.42790830  0.66646088    -0.90100
H1776       H  0.54382880  0.43607691  0.66728458     0.17600
H1777       H  0.51122359  0.38378310  0.55336766     0.17600
N1778       N  0.57092765  0.39896090  0.55643018    -0.89200
H1779       H  0.99595355  0.44123573  0.68733579     0.34900
H1780       H  0.97679535  0.40182370  0.67582071     0.40000
H1781       H  0.57939866  0.42586117  0.54973019     0.39700
H1782       H  0.56038335  0.38804972  0.53415453     0.34500
C1783       C  0.90119960  0.27464459  0.59893870    -0.27200
C1784       C  0.89490688  0.29554629  0.56855677    -0.15300
C1785       C  0.88642356  0.27555801  0.53809835     0.35400
C1786       C  0.88592099  0.23544483  0.53840965    -0.26600
C1787       C  0.89368494  0.21451982  0.56836701    -0.15900
C1788       C  0.90114544  0.23459451  0.59915895     0.36500
N1789       N  0.90999566  0.21455104  0.63025207    -0.90100
H1790       H  0.90779562  0.28957445  0.62238944     0.17600
H1791       H  0.88063869  0.21898832  0.01242537     0.17600
N1792       N  0.87754225  0.29443655  0.00445088    -0.89200
H1793       H  0.91348390  0.23345273  0.65079204     0.34900
H1794       H  0.93122179  0.20187405  0.62544597     0.40000
H1795       H  0.85725307  0.30933406  0.00889561     0.39700
H1796       H  0.87297843  0.27537946  0.98424538     0.34500
C1797       C  0.88285847  0.46820994  0.89499476    -0.27200
C1798       C  0.85554686  0.48915760  0.89488304    -0.15300
C1799       C  0.83402740  0.48322932  0.92145420     0.35400
C1800       C  0.84135399  0.45876090  0.94926968    -0.26600
C1801       C  0.87037166  0.44136747  0.95179457    -0.15900
C1802       C  0.89054859  0.44426778  0.92317958     0.36500
N1803       N  0.91977708  0.42564575  0.92407001    -0.90100
H1804       H  0.89919212  0.47263389  0.87415766     0.17600
H1805       H  0.82534405  0.45606450  0.97064864     0.17600
N1806       N  0.80533187  0.50311459  0.92072498    -0.89200
H1807       H  0.93234380  0.43195683  0.90163721     0.34900
H1808       H  0.91569515  0.39631146  0.92377689     0.40000
H1809       H  0.81002162  0.53211806  0.92381579     0.39700
H1810       H  0.79172706  0.49502679  0.94184800     0.34500
C1811       C  0.91127232  0.55072168  0.70052869    -0.27200
C1812       C  0.88284978  0.56959632  0.70208856    -0.15300
C1813       C  0.86384860  0.56923947  0.67241243     0.35400
C1814       C  0.87160045  0.54605005  0.64398669    -0.26600
C1815       C  0.89785500  0.52308062  0.64498794    -0.15900
C1816       C  0.91862565  0.52685792  0.67257175     0.36500
N1817       N  0.94621618  0.50471150  0.67296501    -0.90100
H1818       H  0.92656249  0.55161359  0.72270779     0.17600
H1819       H  0.85578152  0.54359470  0.62237360     0.17600
N1820       N  0.83564693  0.58990711  0.67202025    -0.89200
H1821       H  0.95896921  0.51035426  0.69538168     0.34900
H1822       H  0.95957241  0.51353797  0.65185559     0.40000
H1823       H  0.83600309  0.60838127  0.65064849     0.39700
H1824       H  0.81775033  0.57048450  0.66842827     0.34500
C1825       C  0.75340092  0.48027850  0.70753350    -0.27200
C1826       C  0.72337362  0.49174780  0.71590322    -0.15300
C1827       C  0.71910993  0.51818247  0.74290224     0.35400
C1828       C  0.74490291  0.53220366  0.76086318    -0.26600
C1829       C  0.77493583  0.52031022  0.75260826    -0.15900
C1830       C  0.77894089  0.49394240  0.72550770     0.36500
N1831       N  0.80859571  0.48116883  0.71497096    -0.90100
H1832       H  0.75713262  0.45992591  0.68688305     0.17600
H1833       H  0.74152345  0.55277614  0.78145159     0.17600
N1834       N  0.68880719  0.52954232  0.75295030    -0.89200
H1835       H  0.82178331  0.50480345  0.70780908     0.34900
H1836       H  0.81899413  0.46743134  0.73601462     0.40000
H1837       H  0.67958032  0.54540074  0.73243774     0.39700
H1838       H  0.68968082  0.54776510  0.77438113     0.34500
C1839       C  0.75103095  0.02283486  0.69745298    -0.27200
C1840       C  0.72164152  0.01608323  0.71138434    -0.15300
C1841       C  0.71909051  0.99712825  0.74385930     0.35400
C1842       C  0.74575845  0.98435273  0.76035791    -0.26600
C1843       C  0.77503783  0.99131859  0.74644083    -0.15900
C1844       C  0.77769968  0.01112384  0.71477106     0.36500
N1845       N  0.80727647  0.01878625  0.70000832    -0.90100
H1846       H  0.75320141  0.03820007  0.67305313     0.17600
H1847       H  0.74356800  0.96884469  0.78468033     0.17600
N1848       N  0.69047969  0.99108684  0.76159717    -0.89200
H1849       H  0.80517055  0.03372321  0.67656024     0.34900
H1850       H  0.81708681  0.99264565  0.69390442     0.40000
H1851       H  0.67201556  0.00302036  0.74845952     0.39700
H1852       H  0.69173790  0.00512753  0.78547188     0.34500
C1853       C  0.85947307  0.77624761  0.78356272    -0.27200
C1854       C  0.85708078  0.79650697  0.81490012    -0.15300
C1855       C  0.85770598  0.77588530  0.84665981     0.35400
C1856       C  0.85827070  0.73582992  0.84606323    -0.26600
C1857       C  0.85828479  0.71558281  0.81461190    -0.15900
C1858       C  0.85996602  0.73630386  0.78307858     0.36500
N1859       N  0.86108922  0.71712148  0.75028668    -0.90100
H1860       H  0.85971264  0.79137163  0.75895595     0.17600
H1861       H  0.85759605  0.72035953  0.87047018     0.17600
N1862       N  0.85669070  0.79536459  0.87946541    -0.89200
H1863       H  0.88087413  0.72595183  0.73724250     0.34900
H1864       H  0.84216420  0.72563899  0.73557468     0.40000
H1865       H  0.87721705  0.81048065  0.88208331     0.39700
H1866       H  0.85594897  0.77596822  0.90012444     0.34500
C1867       C  0.85592934  0.94176217  0.66704769    -0.27200
C1868       C  0.87852193  0.93654328  0.69265374    -0.15300
C1869       C  0.90874443  0.94932817  0.68527375     0.35400
C1870       C  0.91429777  0.97217295  0.65592164    -0.26600
C1871       C  0.89050876  0.98206132  0.63330545    -0.15900
C1872       C  0.86147631  0.96505215  0.63773780     0.36500
N1873       N  0.83707445  0.97416355  0.61405884    -0.90100
H1874       H  0.83293812  0.93134149  0.67178058     0.17600
H1875       H  0.93688470  0.98427929  0.65203563     0.17600
N1876       N  0.93417053  0.94020735  0.70732943    -0.89200
H1877       H  0.81685341  0.96036873  0.62145192     0.34900
H1878       H  0.84302869  0.96342483  0.58967414     0.40000
H1879       H  0.93437181  0.91077115  0.71148264     0.39700
H1880       H  0.93200583  0.95404485  0.73113962     0.34500
C1881       C  0.89133413  0.06580328  0.91973193    -0.27200
C1882       C  0.86817441  0.07054460  0.94470297    -0.15300
C1883       C  0.83847777  0.05612799  0.93718965     0.35400
C1884       C  0.83376499  0.03365409  0.90758097    -0.26600
C1885       C  0.85791450  0.02531643  0.88503327    -0.15900
C1886       C  0.88654335  0.04305784  0.89009720     0.36500
N1887       N  0.91128628  0.03549040  0.86652888    -0.90100
H1888       H  0.91412092  0.07660954  0.92500426     0.17600
H1889       H  0.81157922  0.02064650  0.90341148     0.17600
N1890       N  0.81284925  0.06280040  0.95955285    -0.89200
H1891       H  0.93108992  0.04992406  0.87429368     0.34900
H1892       H  0.90518047  0.04663365  0.84225635     0.40000
H1893       H  0.81137411  0.09202401  0.96432134     0.39700
H1894       H  0.81599109  0.04841403  0.98302759     0.34500
C1895       C  0.99785006  0.52745627  0.95596171    -0.27200
C1896       C  0.52932195  0.51429524  0.96680887    -0.15300
C1897       C  0.53284719  0.49452547  0.99853669     0.35400
C1898       C  0.50681716  0.48200413  0.01664438    -0.26600
C1899       C  0.97606927  0.48936328  0.00254365    -0.15900
C1900       C  0.97213614  0.51412689  0.97396584     0.36500
N1901       N  0.94246664  0.52531614  0.96189913    -0.90100
H1902       H  0.99436162  0.54689511  0.93434916     0.17600
H1903       H  0.50869779  0.46078664  0.53164862     0.17600
N1904       N  0.56234353  0.48822834  0.01372850    -0.89200
H1905       H  0.93131019  0.53969068  0.98188026     0.34900
H1906       H  0.92995832  0.50079122  0.95572673     0.40000
H1907       H  0.57297750  0.51457915  0.01742884     0.39700
H1908       H  0.57546842  0.47230931  0.99635007     0.34500
C1909       C  0.99905153  0.57333272  0.83979265    -0.27200
C1910       C  0.50608812  0.60172642  0.86356223    -0.15300
C1911       C  0.98391535  0.62646608  0.87617306     0.35400
C1912       C  0.95348387  0.61853445  0.86828213    -0.26600
C1913       C  0.94508975  0.58796596  0.84662338    -0.15900
C1914       C  0.96827245  0.56512201  0.83208214     0.36500
N1915       N  0.96071167  0.53377620  0.80968722    -0.90100
H1916       H  0.51623309  0.56138503  0.82277546     0.17600
H1917       H  0.93616680  0.63650455  0.87984842     0.17600
N1918       N  0.99005522  0.65789059  0.89882919    -0.89200
H1919       H  0.98045082  0.51916697  0.80224432     0.34900
H1920       H  0.95131199  0.54512534  0.78690319     0.40000
H1921       H  0.00520944  0.67661974  0.88646970     0.39700
H1922       H  0.99977764  0.64770275  0.92186942     0.34500
C1923       C  0.70284587  0.61880634  0.84515501    -0.27200
C1924       C  0.69510510  0.59039823  0.86955437    -0.15300
C1925       C  0.71862914  0.57204514  0.88809634     0.35400
C1926       C  0.74919874  0.58151819  0.88122552    -0.26600
C1927       C  0.75696283  0.60912886  0.85608871    -0.15900
C1928       C  0.73335530  0.62823693  0.83824575     0.36500
N1929       N  0.74009028  0.65702881  0.81287236    -0.90100
H1930       H  0.68512334  0.63367231  0.83085382     0.17600
H1931       H  0.76693648  0.56635644  0.89515870     0.17600
N1932       N  0.71171852  0.54405218  0.91412656    -0.89200
H1933       H  0.72948175  0.68226173  0.82058159     0.34900
H1934       H  0.73051078  0.64864201  0.78916193     0.40000
H1935       H  0.72110602  0.55316783  0.93769299     0.39700
H1936       H  0.72243301  0.51861101  0.90716875     0.34500
C1937       C  0.62037167  0.54456269  0.57208209    -0.27200
C1938       C  0.64676947  0.52188248  0.57223065    -0.15300
C1939       C  0.66755370  0.52459769  0.54453601     0.35400
C1940       C  0.66042132  0.54772838  0.51583172    -0.26600
C1941       C  0.63204458  0.56660734  0.51337255    -0.15900
C1942       C  0.61264783  0.56688430  0.54280463     0.36500
N1943       N  0.58410301  0.58707381  0.54186988    -0.90100
H1944       H  0.60448648  0.54234735  0.59363022     0.17600
H1945       H  0.67631225  0.54144329  0.99293068     0.17600
N1946       N  0.69486958  0.50191786  0.54473944    -0.89200
H1947       H  0.58922843  0.61612328  0.54019500     0.34900
H1948       H  0.57206618  0.58313167  0.56508804     0.40000
H1949       H  0.70841955  0.51104352  0.56553782     0.39700
H1950       H  0.70760804  0.50663289  0.52211723     0.34500
C1951       C  0.58429385  0.47951707  0.79815838    -0.27200
C1952       C  0.60708062  0.48499979  0.82323657    -0.15300
C1953       C  0.63462301  0.46413637  0.82069760     0.35400
C1954       C  0.63995878  0.44107551  0.79162255    -0.26600
C1955       C  0.61844294  0.43868319  0.76454544    -0.15900
C1956       C  0.58952970  0.45609148  0.76918881     0.36500
N1957       N  0.56593556  0.45159672  0.74362120    -0.90100
H1958       H  0.56289769  0.49488528  0.80018228     0.17600
H1959       H  0.66227222  0.42809764  0.78869208     0.17600
N1960       N  0.65852017  0.46810908  0.84594417    -0.89200
H1961       H  0.56009387  0.47857214  0.73417585     0.34900
H1962       H  0.54669562  0.44004405  0.75592634     0.40000
H1963       H  0.64970413  0.46075967  0.87032071     0.39700
H1964       H  0.66539556  0.49662368  0.84651396     0.34500
C1965       C  0.71608843  0.94655779  0.87612086    -0.27200
C1966       C  0.69508875  0.91680527  0.87108130    -0.15300
C1967       C  0.70600784  0.88086926  0.85955444     0.35400
C1968       C  0.73705128  0.87655006  0.85129355    -0.26600
C1969       C  0.75769028  0.90662142  0.85533659    -0.15900
C1970       C  0.74725394  0.94193229  0.86823914     0.36500
N1971       N  0.76805467  0.97347611  0.87189847    -0.90100
H1972       H  0.70802801  0.97398216  0.88502024     0.17600
H1973       H  0.74524414  0.84947660  0.84163952     0.17600
N1974       N  0.68565959  0.84881526  0.85603677    -0.89200
H1975       H  0.75677126  0.99726307  0.88184670     0.34900
H1976       H  0.77566356  0.98105566  0.84702526     0.40000
H1977       H  0.67802616  0.84145581  0.88094837     0.39700
H1978       H  0.69723742  0.82505877  0.84645698     0.34500
C1979       C  0.98385327  0.90415251  0.88081331    -0.27200
C1980       C  0.00546136  0.90215923  0.85402194    -0.15300
C1981       C  0.99642817  0.91072920  0.81957701     0.35400
C1982       C  0.96607218  0.92147429  0.81270976    -0.26600
C1983       C  0.94461939  0.92325293  0.83966259    -0.15900
C1984       C  0.95371882  0.91446496  0.87406893     0.36500
N1985       N  0.93302711  0.91668737  0.90290688    -0.90100
H1986       H  0.99054004  0.89855941  0.90748140     0.17600
H1987       H  0.95903397  0.92717884  0.78617360     0.17600
N1988       N  0.51844898  0.91347701  0.79162392    -0.89200
H1989       H  0.92300369  0.94368353  0.90299771     0.34900
H1990       H  0.91595075  0.89607249  0.90012423     0.40000
H1991       H  0.51801219  0.94042270  0.78004225     0.39700
H1992       H  0.51082892  0.89389806  0.77309298     0.34500
C1993       C  0.60565224  0.77364148  0.92784413    -0.27200
C1994       C  0.60638879  0.79262159  0.89560555    -0.15300
C1995       C  0.61004218  0.77087003  0.86511512     0.35400
C1996       C  0.61009519  0.73091231  0.86719096    -0.26600
C1997       C  0.60716432  0.71187736  0.89929810    -0.15900
C1998       C  0.60649950  0.73375465  0.93014957     0.36500
N1999       N  0.60577336  0.71565946  0.96375031    -0.90100
H2000       H  0.60366128  0.78993554  0.95159181     0.17600
H2001       H  0.61167814  0.71474677  0.84331390     0.17600
N2002       N  0.61334888  0.78902838  0.83191835    -0.89200
H2003       H  0.60396960  0.73585555  0.98356254     0.34900
H2004       H  0.62686004  0.70223019  0.96735629     0.40000
H2005       H  0.59576146  0.77935785  0.81570778     0.39700
H2006       H  0.63418465  0.78044922  0.82120986     0.34500
C2007       C  0.63422369  0.04198929  0.82015698    -0.27200
C2008       C  0.60675667  0.02123309  0.82163961    -0.15300
C2009       C  0.58422995  0.02752503  0.79619634     0.35400
C2010       C  0.59054590  0.05149822  0.76799581    -0.26600
C2011       C  0.61958930  0.06844020  0.76382434    -0.15900
C2012       C  0.64089238  0.06580086  0.79148591     0.36500
N2013       N  0.67016565  0.08437468  0.78901781    -0.90100
H2014       H  0.65140277  0.03740038  0.84007437     0.17600
H2015       H  0.57362540  0.05379178  0.74747280     0.17600
N2016       N  0.55540670  0.00812337  0.79741637    -0.89200
H2017       H  0.68352183  0.07835348  0.81090890     0.34900
H2018       H  0.66624929  0.11373017  0.78918488     0.40000
H2019       H  0.54485254  0.01461217  0.82105167     0.39700
H2020       H  0.55961811  0.97888125  0.79693347     0.34500
C2021       C  0.61039274  0.96936815  0.56709654    -0.27200
C2022       C  0.63915351  0.98690423  0.56972065    -0.15300
C2023       C  0.66195788  0.97810275  0.54525897     0.35400
C2024       C  0.65525201  0.95327910  0.51786470    -0.26600
C2025       C  0.62552252  0.93845004  0.51308878    -0.15900
C2026       C  0.60312179  0.94560032  0.53879842     0.36500
N2027       N  0.57232109  0.93198335  0.53439996    -0.90100
H2028       H  0.59283577  0.97649271  0.58586098     0.17600
H2029       H  0.67267329  0.94844551  0.49833164     0.17600
N2030       N  0.69151771  0.99567665  0.54652442    -0.89200
H2031       H  0.55826051  0.94171823  0.55444216     0.34900
H2032       H  0.57282686  0.90230707  0.53651509     0.40000
H2033       H  0.70130312  0.98952320  0.57071132     0.39700
H2034       H  0.68859928  0.02513040  0.54452752     0.34500
C2035       C  0.51817977  0.02320870  0.95585537    -0.27200
C2036       C  0.52420430  0.98493639  0.96260237    -0.15300
C2037       C  0.50318227  0.96366752  0.98321075     0.35400
C2038       C  0.97620523  0.98314799  0.99466247    -0.26600
C2039       C  0.97335230  0.02459374  0.49238360    -0.15900
C2040       C  0.99510289  0.04408231  0.97380292     0.36500
N2041       N  0.99159727  0.08430965  0.96895698    -0.90100
H2042       H  0.53348524  0.03945325  0.93929499     0.17600
H2043       H  0.95886843  0.96813806  0.50660875     0.17600
N2044       N  0.50874880  0.92434400  0.99096601    -0.89200
H2045       H  0.48420355  0.08134650  0.93294032     0.34900
H2046       H  0.01370511  0.09884034  0.48489543     0.40000
H2047       H  0.49025891  0.90844158  0.98160011     0.39700
H2048       H  0.00534836  0.91890856  0.01142713     0.34500
loop_ 
_geom_bond_atom_site_label_1 
_geom_bond_atom_site_label_2 
_geom_bond_distance 
_geom_bond_site_symmetry_2 
_ccdc_geom_bond_type 
O1           C16   1.277       .  A
O1           Al9   1.958       .  S
C2           O12   1.270       .  A
C2            O3   1.261       .  A
C2         C1468   1.476       .  S
O3           Al5   1.886       .  S
O4            C6   1.260       .  A
O4           Al5   1.914       .  S
Al5          O13   1.938       .  S
Al5          O15   1.857       .  S
Al5          O14   1.775       .  S
C6           O19   1.256       .  A
C6          C472   1.475   1_565  S
O7           C17   1.280       .  A
O7           Al9   1.986       .  S
O8           C21   1.263       .  A
O8          Al18   1.941       .  S
Al9          O22   1.873       .  S
Al9          O19   1.899       .  S
Al9          O14   1.769       .  S
O10          C17   1.253       .  A
O10         Al18   1.846       .  S
O11          C20   1.265       .  A
O11         Al18   1.900       .  S
O12         Al18   1.933       .  S
O13          C20   1.269       .  A
O14         Al18   1.777       .  S
O15          C16   1.260       .  A
C16         C430   1.487       .  S
C17         C500   1.488       .  S
C20         C458   1.492       .  S
C21          O22   1.251       .  A
C21        C1001   1.488       .  S
O23          C38   1.250       .  A
O23         Al31   1.868       .  S
C24          O34   1.263       .  A
C24          O25   1.270       .  A
C24         C374   1.483       .  S
O25         Al27   1.935       .  S
O26          C28   1.253       .  A
O26         Al27   1.841       .  S
Al27         O35   1.893       .  S
Al27         O37   1.942       .  S
Al27         O36   1.774       .  S
C28          O41   1.277       .  A
C28         C360   1.481       .  S
O29          C39   1.256       .  A
O29         Al31   1.900       .  S
O30          C43   1.260       .  A
O30         Al40   1.846       .  S
Al31         O44   1.945       .  S
Al31         O41   1.975       .  S
Al31         O36   1.767       .  S
O32          C39   1.261       .  A
O32         Al40   1.928       .  S
O33          C42   1.270       .  A
O33         Al40   1.948       .  S
O34         Al40   1.879       .  S
O35          C42   1.261       .  A
O36         Al40   1.776       .  S
O37          C38   1.264       .  A
C38         C917   1.489       .  S
C39         C416   1.478       .  S
C42         C461   1.493       .  S
C43          O44   1.275       .  A
C43         C388   1.471       .  S
O45          C60   1.249       .  A
O45         Al53   1.869       .  S
C46          O56   1.260       .  A
C46          O47   1.272       .  A
C46         C433   1.473       .  S
O47         Al49   1.944       .  S
O48          C50   1.253       .  A
O48         Al49   1.841       .  S
Al49         O57   1.899       .  S
Al49         O59   1.949       .  S
Al49         O58   1.774       .  S
C50          O63   1.278       .  A
C50         C307   1.484       .  S
O51          C61   1.255   1_545  A
O51         Al53   1.901   1_545  S
O52          C65   1.259       .  A
O52         Al62   1.856       .  S
Al53         O66   1.963       .  S
Al53         O63   1.983       .  S
Al53         O58   1.767       .  S
O54          C61   1.261       .  A
O54         Al62   1.924       .  S
O55          C64   1.270       .  A
O55         Al62   1.948       .  S
O56         Al62   1.879       .  S
O57          C64   1.264       .  A
O58         Al62   1.773       .  S
O59          C60   1.266       .  A
C60         C332   1.489       .  S
C61         C349   1.473   1_565  S
C64         C318   1.495       .  S
C65          O66   1.277       .  A
C65         C447   1.470       .  S
O67          C82   1.274       .  A
O67         Al75   1.948       .  S
C68          O78   1.269       .  A
C68          O69   1.261       .  A
C68         C391   1.477       .  S
O69         Al71   1.876       .  S
O70          C72   1.264       .  A
O70         Al71   1.932       .  S
Al71         O79   1.957       .  S
Al71         O81   1.852       .  S
Al71         O80   1.772       .  S
C72          O85   1.255       .  A
C72         C262   1.475       .  S
O73          C83   1.277       .  A
O73         Al75   1.976       .  S
O74          C87   1.265       .  A
O74         Al84   1.950       .  S
Al75         O88   1.865       .  S
Al75         O85   1.891       .  S
Al75         O80   1.765       .  S
O76          C83   1.252       .  A
O76         Al84   1.845       .  S
O77          C86   1.262       .  A
O77         Al84   1.892       .  S
O78         Al84   1.929       .  S
O79          C86   1.273       .  A
O80         Al84   1.773       .  S
O81          C82   1.261       .  A
C82         C377   1.479       .  S
C83         C293   1.484       .  S
C86         C321   1.495       .  S
C87          O88   1.250       .  A
C87         C276   1.488       .  S
O89         C104   1.274       .  A
O89         Al97   1.950       .  S
C90         O100   1.272       .  A
C90          O91   1.260       .  A
C90        C1261   1.481       .  S
O91         Al93   1.878       .  S
O92          C94   1.262       .  A
O92         Al93   1.923       .  S
Al93        O101   1.941       .  S
Al93        O103   1.854       .  S
Al93        O102   1.774       .  S
C94         O107   1.255       .  A
C94         C279   1.472       .  S
O95         C105   1.279       .  A
O95         Al97   1.982       .  S
O96         C109   1.266       .  A
O96        Al618   1.957       .  S
Al97        O107   1.892       .  S
Al97        O622   1.864       .  S
Al97        O102   1.767       .  S
O98         C105   1.253       .  A
O98        Al106   1.849       .  S
O99         C108   1.264       .  A
O99        Al106   1.900       .  S
O100       Al106   1.941       .  S
O101        C108   1.270       .  A
O102       Al106   1.775       .  S
O103        C104   1.259       .  A
C104        C223   1.466       .  S
C105        C875   1.484       .  S
Al106       O608   1.959   1_554  S
C108        C248   1.488       .  S
C109        O110   1.249       .  A
C109        C265   1.492       .  S
O110       Al609   1.862       .  S
O111        C638   1.250   1_554  A
O111       Al119   1.878       .  S
C112        O122   1.261       .  A
C112        O113   1.272       .  A
C112       C1216   1.473       .  S
O113       Al115   1.936       .  S
O114        C116   1.254       .  A
O114       Al115   1.848       .  S
Al115       O123   1.909       .  S
Al115       O637   1.937   1_554  S
Al115       O124   1.776       .  S
C116        O129   1.278       .  A
C116        C503   1.484   1_554  S
O117        C127   1.255       .  A
O117       Al119   1.901       .  S
O118        C131   1.260       .  A
O118       Al128   1.851       .  S
Al119       O132   1.957       .  S
Al119       O129   1.978       .  S
Al119       O124   1.769       .  S
O120        C127   1.259       .  A
O120       Al128   1.917       .  S
O121        C130   1.266       .  A
O121       Al128   1.930       .  S
O122       Al128   1.870       .  S
O123        C130   1.264       .  A
O124       Al128   1.775       .  S
O125        C126   1.264       .  A
O125       Al627   1.936       .  S
C126        O623   1.251       .  A
C126        C346   1.483       .  S
C127        C335   1.472   1_545  S
C130        C251   1.489       .  S
C131        O132   1.277       .  A
C131        C206   1.483       .  S
O133        C148   1.248       .  A
O133       Al141   1.864       .  S
C134        O144   1.262       .  A
C134        O135   1.272       .  A
C134        C220   1.477       .  S
O135       Al137   1.937       .  S
O136        C138   1.255       .  A
O136       Al137   1.844       .  S
Al137       O145   1.904       .  S
Al137       O147   1.950       .  S
Al137       O146   1.779       .  S
C138        O151   1.279       .  A
C138        C290   1.486       .  S
O139        C149   1.254       .  A
O139       Al141   1.900       .  S
O140        C153   1.260       .  A
O140       Al150   1.856       .  S
Al141       O154   1.955       .  S
Al141       O151   1.978       .  S
Al141       O146   1.770       .  S
O142        C149   1.257       .  A
O142       Al150   1.907       .  S
O143        C152   1.265       .  A
O143       Al150   1.924       .  S
O144       Al150   1.880       .  S
O145        C152   1.266       .  A
O146       Al150   1.776       .  S
O147        C148   1.264       .  A
C148        C419   1.489       .  S
C149        C402   1.474       .  S
C152        C181   1.488       .  S
C153        O154   1.277       .  A
C153        C234   1.476       .  S
O155        C170   1.277       .  A
O155       Al163   1.960       .  S
C156        O166   1.272       .  A
C156        O157   1.261       .  A
C156        C209   1.476       .  S
O157       Al159   1.869       .  S
O158        C160   1.262       .  A
O158       Al159   1.929       .  S
Al159       O167   1.946       .  S
Al159       O169   1.854       .  S
Al159       O168   1.776       .  S
C160        O173   1.254       .  A
C160        C486   1.474   1_545  S
O161        C171   1.278       .  A
O161       Al163   1.976       .  S
O162        C175   1.265       .  A
O162       Al172   1.949       .  S
Al163       O176   1.869       .  S
Al163       O173   1.891       .  S
Al163       O168   1.764       .  S
O164        C171   1.252       .  A
O164       Al172   1.839       .  S
O165        C174   1.259       .  A
O165       Al172   1.884       .  S
O166       Al172   1.943       .  S
O167        C174   1.270       .  A
O168       Al172   1.776       .  S
O169        C170   1.261       .  A
C170        C195   1.484       .  S
C171        C304   1.485       .  S
C174        C178   1.489       .  S
C175        O176   1.251       .  A
C175        C475   1.493       .  S
C177        C178   1.405       .  A
C177        C182   1.403       .  A
C177        H184   1.084       .  S
C178        C179   1.418       .  A
C179        C180   1.404       .  A
C179        N186   1.438       .  S
C180        C181   1.403       .  A
C180        H185   1.083       .  S
C181        C182   1.416       .  A
C182        N183   1.433       .  S
N183        H187   1.046       .  S
N183        H188   1.046       .  S
N186        H189   1.045       .  S
N186        H190   1.046       .  S
C191        C192   1.410   1_455  A
C191        C196   1.407       .  A
C191       H1222   1.083   1_455  S
C192       C1136   1.482       .  S
C192        C193   1.408   1_655  A
C193        C194   1.396       .  A
C193        N200   1.433       .  S
C194        C195   1.408       .  A
C194        H199   1.084       .  S
C195        C196   1.411       .  A
C196        N197   1.437       .  S
N197        H201   1.045       .  S
N197        H202   1.045       .  S
H198       C1215   1.084       .  S
N200        H203   1.046       .  S
N200        H204   1.046       .  S
C205        C206   1.412       .  A
C205        C210   1.398       .  A
C205        H212   1.084       .  S
C206        C207   1.411       .  A
C207        C208   1.403       .  A
C207        N214   1.438       .  S
C208        C209   1.407       .  A
C208        H213   1.081       .  S
C209        C210   1.404       .  A
C210        N211   1.433       .  S
N211        H215   1.046       .  S
N211        H216   1.046       .  S
N214        H217   1.045       .  S
N214        H218   1.046       .  S
C219        C220   1.403       .  A
C219        C224   1.398       .  A
C219        H226   1.084       .  S
C220        C221   1.416       .  A
C221        C222   1.406       .  A
C221        N228   1.438       .  S
C222        C223   1.399       .  A
C222        H227   1.084       .  S
C223        C224   1.410       .  A
C224        N225   1.439       .  S
N225        H229   1.046       .  S
N225        H230   1.045       .  S
N228        H231   1.046       .  S
N228        H232   1.046       .  S
C233        C234   1.401       .  A
C233        C238   1.408       .  A
C233        H240   1.084       .  S
C234        C235   1.414       .  A
C235        C236   1.399       .  A
C235        N242   1.439       .  S
C236        C237   1.401   1_455  A
C236        H241   1.083       .  S
C237       C1114   1.483       .  S
C237        C238   1.418   1_655  A
C238       N1263   1.438   1_455  S
N239       C1262   1.438       .  S
N239        H243   1.046       .  S
N239        H244   1.046       .  S
N242        H245   1.045       .  S
N242        H246   1.046       .  S
C247        C248   1.403       .  A
C247        C252   1.401       .  A
C247        H254   1.084       .  S
C248        C249   1.415       .  A
C249        C250   1.410       .  A
C249        N768   1.438       .  S
C250        C251   1.406       .  A
C250        H767   1.083       .  S
C251        C252   1.414       .  A
C252        N253   1.433       .  S
N253        H257   1.045       .  S
N253        H258   1.046       .  S
H255        C762   1.084       .  S
N256        C761   1.438       .  S
N256        H259   1.046       .  S
N256        H260   1.045       .  S
C261        C262   1.405       .  A
C261        C266   1.411       .  A
C261        H268   1.084       .  S
C262        C263   1.404       .  A
C263        C264   1.404       .  A
C263        N270   1.438       .  S
C264        C265   1.413       .  A
C264        H269   1.084       .  S
C265        C266   1.413       .  A
C266        N267   1.437       .  S
N267        H271   1.045       .  S
N267        H272   1.046       .  S
N270        H273   1.046       .  S
N270        H274   1.045       .  S
C275        C276   1.412       .  A
C275        C280   1.404       .  A
C275        H282   1.083       .  S
C276        C277   1.411       .  A
C277        C278   1.407       .  A
C277        N284   1.432       .  S
C278        C279   1.404       .  A
C278        H283   1.084       .  S
C279        C280   1.402       .  A
C280        N281   1.437       .  S
N281        H285   1.046       .  S
N281        H286   1.046       .  S
N284        H287   1.045       .  S
N284        H288   1.046       .  S
C289        C290   1.413       .  A
C289        C294   1.399       .  A
C289        H296   1.083       .  S
C290        C291   1.407       .  A
C291        C292   1.408       .  A
C291        N298   1.437       .  S
C292        C293   1.414       .  A
C292        H297   1.084       .  S
C293        C294   1.408       .  A
C294        N295   1.432       .  S
N295        H299   1.045       .  S
N295        H300   1.045       .  S
N298        H301   1.045       .  S
N298        H302   1.046       .  S
C303        C304   1.416       .  A
C303        C308   1.409       .  A
C303        H310   1.085       .  S
C304        C305   1.417   1_545  A
C305        C306   1.401       .  A
C305        N312   1.440       .  S
C306        C307   1.410       .  A
C306        H311   1.085       .  S
C307        C308   1.406   1_565  A
C308        N309   1.438       .  S
N309        H313   1.046       .  S
N309        H314   1.044       .  S
N312        H315   1.038   1_565  S
N312        H316   1.046   1_565  S
C317        C318   1.406       .  A
C317        C322   1.404       .  A
C317        H324   1.084       .  S
C318        C319   1.416       .  A
C319        C320   1.411       .  A
C319        N326   1.438       .  S
C320        C321   1.406       .  A
C320        H325   1.083       .  S
C321        C322   1.415       .  A
C322        N323   1.433       .  S
N323        H327   1.045       .  S
N323        H328   1.046       .  S
N326        H329   1.046       .  S
N326        H330   1.045       .  S
C331        C332   1.406       .  A
C331        C336   1.408       .  A
C331        H338   1.084       .  S
C332        C333   1.424       .  A
C333        C334   1.400       .  A
C333        N340   1.434       .  S
C334        C335   1.397       .  A
C334        H339   1.084       .  S
C335        C336   1.409       .  A
C336        N337   1.438       .  S
N337        H341   1.046       .  S
N337        H342   1.045       .  S
N340        H343   1.046       .  S
N340        H344   1.043       .  S
C345        C346   1.405       .  A
C345        C350   1.405       .  A
C345        H352   1.084       .  S
C346        C347   1.420       .  A
C347        C348   1.404       .  A
C347        N354   1.433       .  S
C348        C349   1.400       .  A
C348        H353   1.083       .  S
C349        C350   1.408       .  A
C350        N351   1.438       .  S
N351        H355   1.046       .  S
N351        H356   1.045       .  S
N354        H357   1.045       .  S
N354        H358   1.043       .  S
C359        C364   1.403       .  A
C359       C1384   1.413       .  A
C359        H366   1.085       .  S
C360        C361   1.409       .  A
C360       C1383   1.411   1_455  A
C361        C362   1.401       .  A
C361        N368   1.432       .  S
C362       C1387   1.413   1_455  A
C362        H879   1.084       .  S
C363        C617   1.487       .  S
C363        C364   1.411       .  A
C363       C1386   1.412       .  A
C364        N365   1.432       .  S
N365        H369   1.045       .  S
N365        H370   1.045       .  S
H367        C874   1.084       .  S
N368        H371   1.046       .  S
N368        H372   1.044       .  S
C373        C378   1.405       .  A
C373       C1398   1.408       .  A
C373       H1404   1.084       .  S
C374       C1397   1.411   1_455  A
C374       C1399   1.417   1_455  A
C375        C376   1.389       .  A
C375       C1398   1.413       .  A
C375        N382   1.434       .  S
C376        C377   1.407       .  A
C376        H381   1.084       .  S
C377        C378   1.411       .  A
C378        N379   1.438       .  S
N379        H383   1.046       .  S
N379        H384   1.045       .  S
H380       C1397   1.083   1_455  S
N382        H385   1.046       .  S
N382        H386   1.044       .  S
C387        C388   1.405       .  A
C387        C392   1.393       .  A
C387        H394   1.084       .  S
C388        C389   1.406       .  A
C389        C390   1.401       .  A
C389        N396   1.433       .  S
C390        C391   1.409       .  A
C390        H395   1.083       .  S
C391        C392   1.409       .  A
C392        N393   1.433       .  S
N393        H397   1.045       .  S
N393        H398   1.046       .  S
N396        H399   1.045       .  S
N396        H400   1.046       .  S
C401        C402   1.404       .  A
C401        C406   1.412       .  A
C401        H408   1.084       .  S
C402        C403   1.404       .  A
C403        C404   1.403       .  A
C403        N410   1.438       .  S
C404        C405   1.411       .  A
C404        H921   1.084   1_554  S
C405        C550   1.492   1_554  S
C405        C406   1.415       .  A
C406        N407   1.437       .  S
N407        H411   1.045       .  S
N407        H412   1.046       .  S
H409        C916   1.084       .  S
N410        H413   1.046       .  S
N410        H414   1.045       .  S
C415        C416   1.398       .  A
C415        C420   1.406       .  A
C415        H422   1.084       .  S
C416        C417   1.416       .  A
C417        C418   1.404       .  A
C417        N424   1.432       .  S
C418        C419   1.404       .  A
C418        H423   1.084       .  S
C419        C420   1.418       .  A
C420        N421   1.433       .  S
N421        H425   1.046       .  S
N421        H426   1.045       .  S
N424        H427   1.045       .  S
N424        H428   1.045       .  S
C429        C430   1.404       .  A
C429        C434   1.407       .  A
C429        H436   1.083       .  S
C430        C431   1.422       .  A
C431        C432   1.401       .  A
C431        N438   1.439       .  S
C432        C433   1.395       .  A
C432        H437   1.084       .  S
C433        C434   1.414       .  A
C434        N435   1.439       .  S
N435        H439   1.046   1_565  S
N435        H440   1.046       .  S
N438        H441   1.046       .  S
N438        H442   1.046       .  S
C443        C444   1.402       .  A
C443        C448   1.393       .  A
C443        H450   1.084       .  S
C444       C1026   1.477       .  S
C444        C445   1.412       .  A
C445        C446   1.406       .  A
C445       N1476   1.432       .  S
C446        C447   1.401       .  A
C446        H451   1.084       .  S
C447        C448   1.415       .  A
C448        N449   1.434       .  S
N449        H453   1.046       .  S
N449        H454   1.044       .  S
N452       C1469   1.432   1_455  S
N452        H455   1.045       .  S
N452        H456   1.046       .  S
C457        C458   1.406       .  A
C457        C462   1.408       .  A
C457        H464   1.083       .  S
C458        C459   1.413       .  A
C459        C460   1.404       .  A
C459        N466   1.432       .  S
C460        C461   1.405       .  A
C460        H465   1.084       .  S
C461        C462   1.418       .  A
C462        N463   1.438       .  S
N463        H467   1.044       .  S
N463        H468   1.047       .  S
N466        H469   1.046       .  S
N466        H470   1.045       .  S
C471        C472   1.403       .  A
C471        C476   1.412       .  A
C471        H478   1.084       .  S
C472        C473   1.406       .  A
C473        C474   1.398       .  A
C473        N480   1.432   1_545  S
C474        C475   1.411       .  A
C474        H479   1.084       .  S
C475        C476   1.415       .  A
C476        N477   1.437       .  S
N477        H481   1.046       .  S
N477        H482   1.045       .  S
N480        H483   1.046   1_565  S
N480        H484   1.044       .  S
C485        C486   1.404       .  A
C485        C490   1.410       .  A
C485        H492   1.084       .  S
C486        C487   1.405       .  A
C487        C488   1.398       .  A
C487        N494   1.432   1_565  S
C488        C489   1.412       .  A
C488        H493   1.084   1_554  S
C489        C533   1.490   1_554  S
C489        C490   1.414       .  A
C490        N491   1.437       .  S
N491        H495   1.045       .  S
N491        H496   1.046       .  S
N494        H497   1.046   1_545  S
N494        H498   1.045       .  S
C499        C500   1.397   1_545  A
C499       C1528   1.407   1_455  A
C499        H506   1.084       .  S
C500        C501   1.423       .  A
C501       C1526   1.402   1_455  A
C501        N508   1.433       .  S
C502       C1525   1.404       .  A
C502       C1015   1.394   1_565  A
C502       H1019   1.084       .  S
C503       C1014   1.397   1_545  A
C503       C1016   1.419       .  A
C504       C1523   1.407       .  A
C504       C1015   1.419       .  A
C504        N505   1.433       .  S
N505       H1533   1.046       .  S
N505       H1022   1.046       .  S
H507       C1014   1.084   1_554  S
N508        H511   1.045   1_455  S
N508       H1536   1.046       .  S
H509       N1529   1.046       .  S
H510       N1017   1.046       .  S
H512       N1532   1.046       .  S
O513        C528   1.278       .  A
O513       Al521   1.965       .  S
C514        O524   1.273       .  A
C514        O515   1.259       .  A
C514       C1980   1.474       .  S
O515       Al517   1.873       .  S
O516        C518   1.262       .  A
O516       Al517   1.921       .  S
Al517       O525   1.948       .  S
Al517       O527   1.845       .  S
Al517       O526   1.773       .  S
C518        O531   1.255       .  A
C518        C984   1.471   1_565  S
O519        C529   1.281       .  A
O519       Al521   1.992       .  S
O520        C533   1.266       .  A
O520       Al530   1.957       .  S
Al521       O534   1.864       .  S
Al521       O531   1.892       .  S
Al521       O526   1.767       .  S
O522        C529   1.251       .  A
O522       Al530   1.838       .  S
O523        C532   1.263       .  A
O523       Al530   1.892       .  S
O524       Al530   1.941       .  S
O525        C532   1.270       .  A
O526       Al530   1.774       .  S
O527        C528   1.257       .  A
C528        C942   1.490       .  S
C529       C1012   1.486       .  S
C532        C970   1.492       .  S
C533        O534   1.249       .  A
O535        C550   1.250       .  A
O535       Al543   1.869       .  S
C536        O546   1.261       .  A
C536        O537   1.269       .  A
C536        C886   1.481       .  S
O537       Al539   1.933       .  S
O538        C540   1.253       .  A
O538       Al539   1.843       .  S
Al539       O547   1.891       .  S
Al539       O549   1.944       .  S
Al539       O548   1.775       .  S
C540        O553   1.276       .  A
C540        C872   1.480       .  S
O541        C551   1.255       .  A
O541       Al543   1.896       .  S
O542        C555   1.261       .  A
O542       Al552   1.853       .  S
Al543       O556   1.940       .  S
Al543       O553   1.967       .  S
Al543       O548   1.768       .  S
O544        C551   1.260       .  A
O544       Al552   1.920       .  S
O545        C554   1.270       .  A
O545       Al552   1.950       .  S
O546       Al552   1.878       .  S
O547        C554   1.261       .  A
O548       Al552   1.777       .  S
O549        C550   1.264       .  A
C551        C928   1.474       .  S
C554        C973   1.494       .  S
C555        O556   1.274       .  A
C555        C900   1.464       .  S
O557        C572   1.253       .  A
O557       Al565   1.880       .  S
C558        O568   1.261       .  A
C558        O559   1.274       .  A
C558        C945   1.479       .  S
O559       Al561   1.943       .  S
O560        C562   1.252       .  A
O560       Al561   1.843       .  S
Al561       O569   1.905       .  S
Al561       O571   1.951       .  S
Al561       O570   1.774       .  S
C562        O575   1.275       .  A
C562        C819   1.481       .  S
O563        C573   1.255       .  A
O563       Al565   1.910       .  S
O564        C577   1.261       .  A
O564       Al574   1.858       .  S
Al565       O578   1.965       .  S
Al565       O575   1.970       .  S
Al565       O570   1.771       .  S
O566        C573   1.259       .  A
O566       Al574   1.922       .  S
O567        C576   1.268       .  A
O567       Al574   1.946       .  S
O568       Al574   1.880       .  S
O569        C576   1.264       .  A
O570       Al574   1.780       .  S
O571        C572   1.267       .  A
C572        C844   1.496       .  S
C573        C861   1.477   1_565  S
C576        C830   1.498       .  S
C577        O578   1.279       .  A
C577        C959   1.472       .  S
O579        C594   1.274       .  A
O579       Al587   1.944       .  S
C580        O590   1.269       .  A
C580        O581   1.262       .  A
C580        C903   1.477       .  S
O581       Al583   1.878       .  S
O582        C584   1.261       .  A
O582       Al583   1.923       .  S
Al583       O591   1.953       .  S
Al583       O593   1.856       .  S
Al583       O592   1.774       .  S
C584        O597   1.256       .  A
C584        C774   1.476       .  S
O585        C595   1.276       .  A
O585       Al587   1.970       .  S
O586        C599   1.265       .  A
O586       Al596   1.948       .  S
Al587       O600   1.867       .  S
Al587       O597   1.899       .  S
Al587       O592   1.769       .  S
O588        C595   1.252       .  A
O588       Al596   1.844       .  S
O589        C598   1.263       .  A
O589       Al596   1.897       .  S
O590       Al596   1.930       .  S
O591        C598   1.271       .  A
O592       Al596   1.777       .  S
O593        C594   1.262       .  A
C594        C889   1.474       .  S
C595        C805   1.474       .  S
C598        C833   1.497       .  S
C599        O600   1.251       .  A
C599        C788   1.491       .  S
O601        C616   1.275       .  A
O601       Al609   1.952       .  S
C602        O612   1.273       .  A
C602        O603   1.259       .  A
C602       C1773   1.479       .  S
O603       Al605   1.867       .  S
O604        C606   1.261       .  A
O604       Al605   1.918       .  S
Al605       O613   1.937       .  S
Al605       O615   1.855       .  S
Al605       O614   1.774       .  S
C606        O619   1.256       .  A
C606        C791   1.472       .  S
O607        C617   1.279       .  A
O607       Al609   1.986       .  S
O608        C621   1.266       .  A
Al609       O619   1.896       .  S
Al609       O614   1.765       .  S
O610        C617   1.253       .  A
O610       Al618   1.847       .  S
O611        C620   1.263       .  A
O611       Al618   1.900       .  S
O612       Al618   1.943       .  S
O613        C620   1.269       .  A
O614       Al618   1.778       .  S
O615        C616   1.259       .  A
C616        C735   1.468       .  S
C620        C760   1.486       .  S
C621        O622   1.249   1_556  A
C621        C777   1.494       .  S
O623       Al631   1.877       .  S
C624        O634   1.262       .  A
C624        O625   1.272       .  A
C624       C1728   1.474       .  S
O625       Al627   1.943       .  S
O626        C628   1.254       .  A
O626       Al627   1.850       .  S
Al627       O635   1.903       .  S
Al627       O636   1.781       .  S
C628        O641   1.277       .  A
C628       C1015   1.482       .  S
O629        C639   1.258       .  A
O629       Al631   1.915       .  S
O630        C643   1.261       .  A
O630       Al640   1.856       .  S
Al631       O644   1.962       .  S
Al631       O641   1.974       .  S
Al631       O636   1.770       .  S
O632        C639   1.259       .  A
O632       Al640   1.918       .  S
O633        C642   1.265       .  A
O633       Al640   1.928       .  S
O634       Al640   1.873       .  S
O635        C642   1.262       .  A
O636       Al640   1.775       .  S
O637        C638   1.264       .  A
C638        C858   1.482       .  S
C639        C847   1.481   1_545  S
C642        C763   1.485       .  S
C643        O644   1.277       .  A
C643        C718   1.489       .  S
O645        C660   1.249       .  A
O645       Al653   1.867       .  S
C646        O656   1.259       .  A
C646        O647   1.272       .  A
C646        C732   1.480       .  S
O647       Al649   1.942       .  S
O648        C650   1.252       .  A
O648       Al649   1.841       .  S
Al649       O657   1.899       .  S
Al649       O659   1.948       .  S
Al649       O658   1.778       .  S
C650        O663   1.276       .  A
C650        C802   1.472       .  S
O651        C661   1.254       .  A
O651       Al653   1.893       .  S
O652        C665   1.259       .  A
O652       Al662   1.852       .  S
Al653       O666   1.941       .  S
Al653       O663   1.968       .  S
Al653       O658   1.768       .  S
O654        C661   1.260       .  A
O654       Al662   1.919       .  S
O655        C664   1.268       .  A
O655       Al662   1.933       .  S
O656       Al662   1.867       .  S
O657        C664   1.264       .  A
O658       Al662   1.775       .  S
O659        C660   1.265       .  A
C660        C931   1.488       .  S
C661        C914   1.473       .  S
C664        C693   1.488       .  S
C665        O666   1.274       .  A
C665        C746   1.465       .  S
O667        C682   1.276       .  A
O667       Al675   1.954       .  S
C668        O678   1.272       .  A
C668        O669   1.262       .  A
C668        C721   1.478       .  S
O669       Al671   1.878       .  S
O670        C672   1.261       .  A
O670       Al671   1.927       .  S
Al671       O679   1.944       .  S
Al671       O681   1.860       .  S
Al671       O680   1.773       .  S
C672        O685   1.254       .  A
C672        C998   1.474   1_545  S
O673        C683   1.277       .  A
O673       Al675   1.971       .  S
O674        C687   1.265       .  A
O674       Al684   1.951       .  S
Al675       O688   1.862       .  S
Al675       O685   1.894       .  S
Al675       O680   1.763       .  S
O676        C683   1.253       .  A
O676       Al684   1.838       .  S
O677        C686   1.260       .  A
O677       Al684   1.888       .  S
O678       Al684   1.945       .  S
O679        C686   1.270       .  A
O680       Al684   1.778       .  S
O681        C682   1.261       .  A
C682        C707   1.485       .  S
C683        C816   1.485       .  S
C686        C690   1.489       .  S
C687        O688   1.250       .  A
C687        C987   1.490       .  S
C689        C690   1.405       .  A
C689        C694   1.403       .  A
C689        H696   1.084       .  S
C690        C691   1.415       .  A
C691        C692   1.403       .  A
C691        N698   1.433       .  S
C692        C693   1.405       .  A
C692        H697   1.084       .  S
C693        C694   1.414       .  A
C694        N695   1.432       .  S
N695        H699   1.046       .  S
N695        H700   1.045       .  S
N698        H701   1.045       .  S
N698        H702   1.046       .  S
C703        C704   1.408       .  A
C703        C708   1.406   1_655  A
C703       H1734   1.083       .  S
C704       C1648   1.479       .  S
C704        C705   1.407   1_655  A
C705        C706   1.397       .  A
C705        N712   1.433       .  S
C706        C707   1.409       .  A
C706        H711   1.084       .  S
C707        C708   1.413       .  A
C708        N709   1.438       .  S
N709        H713   1.046       .  S
N709        H714   1.046       .  S
H710       C1727   1.084       .  S
N712        H715   1.046       .  S
N712        H716   1.046       .  S
C717        C718   1.413       .  A
C717        C722   1.399       .  A
C717        H724   1.083       .  S
C718        C719   1.413       .  A
C719        C720   1.407       .  A
C719        N726   1.438       .  S
C720        C721   1.406       .  A
C720        H725   1.080       .  S
C721        C722   1.402       .  A
C722        N723   1.433       .  S
N723        H727   1.045       .  S
N723        H728   1.046       .  S
N726        H729   1.045       .  S
N726        H730   1.046       .  S
C731        C732   1.403       .  A
C731        C736   1.401       .  A
C731        H738   1.084       .  S
C732        C733   1.418       .  A
C733        C734   1.403       .  A
C733        N740   1.438       .  S
C734        C735   1.397       .  A
C734        H739   1.084       .  S
C735        C736   1.412       .  A
C736        N737   1.439       .  S
N737        H741   1.046       .  S
N737        H742   1.045       .  S
N740        H743   1.046       .  S
N740        H744   1.045       .  S
C745        C746   1.399       .  A
C745        C750   1.403       .  A
C745        H752   1.084       .  S
C746        C747   1.410       .  A
C747        C748   1.397       .  A
C747        N754   1.439       .  S
C748        C749   1.404   1_455  A
C748        H753   1.083       .  S
C749       C1626   1.477       .  S
C749        C750   1.417   1_655  A
C750       N1775   1.438   1_455  S
N751       C1774   1.438       .  S
N751        H755   1.046       .  S
N751        H756   1.046       .  S
N754        H757   1.045       .  S
N754        H758   1.046       .  S
C759        C760   1.404       .  A
C759        C764   1.404       .  A
C759        H766   1.084       .  S
C760        C761   1.414       .  A
C761        C762   1.408       .  A
C762        C763   1.405       .  A
C763        C764   1.415       .  A
C764        N765   1.439       .  S
N765        H769   1.046       .  S
N765        H770   1.046       .  S
N768        H771   1.046       .  S
N768        H772   1.045   1_554  S
C773        C774   1.405       .  A
C773        C778   1.412       .  A
C773        H780   1.084       .  S
C774        C775   1.404       .  A
C775        C776   1.406       .  A
C775        N782   1.439       .  S
C776        C777   1.413       .  A
C776        H781   1.084       .  S
C777        C778   1.414       .  A
C778        N779   1.437       .  S
N779        H783   1.045       .  S
N779        H784   1.046       .  S
N782        H785   1.046       .  S
N782        H786   1.045       .  S
C787        C788   1.411       .  A
C787        C792   1.403       .  A
C787        H794   1.083       .  S
C788        C789   1.412       .  A
C789        C790   1.409       .  A
C789        N796   1.432       .  S
C790        C791   1.405       .  A
C790        H795   1.084       .  S
C791        C792   1.402       .  A
C792        N793   1.437       .  S
N793        H797   1.045       .  S
N793        H798   1.046       .  S
N796        H799   1.045       .  S
N796        H800   1.045       .  S
C801        C802   1.409       .  A
C801        C806   1.397       .  A
C801        H808   1.084       .  S
C802        C803   1.407       .  A
C803        C804   1.407       .  A
C803        N810   1.438       .  S
C804        C805   1.410       .  A
C804        H809   1.084       .  S
C805        C806   1.408       .  A
C806        N807   1.432       .  S
N807        H811   1.044       .  S
N807        H812   1.045       .  S
N810        H813   1.045       .  S
N810        H814   1.046       .  S
C815        C816   1.416       .  A
C815        C820   1.406       .  A
C815        H822   1.085       .  S
C816        C817   1.419   1_545  A
C817        C818   1.402       .  A
C817        N824   1.440       .  S
C818        C819   1.409       .  A
C818        H823   1.085       .  S
C819        C820   1.405   1_565  A
C820        N821   1.438       .  S
N821        H825   1.046       .  S
N821        H826   1.044       .  S
N824        H827   1.038       .  S
N824        H828   1.046       .  S
C829        C830   1.405       .  A
C829        C834   1.404       .  A
C829        H836   1.083       .  S
C830        C831   1.418       .  A
C831        C832   1.413       .  A
C831        N838   1.438       .  S
C832        C833   1.407       .  A
C832        H837   1.083       .  S
C833        C834   1.414       .  A
C834        N835   1.432       .  S
N835        H839   1.046       .  S
N835        H840   1.046       .  S
N838        H841   1.046       .  S
N838        H842   1.045       .  S
C843        C844   1.407       .  A
C843        C848   1.411       .  A
C843        H850   1.084       .  S
C844        C845   1.422       .  A
C845        C846   1.406       .  A
C845        N852   1.433       .  S
C846        C847   1.400       .  A
C846        H851   1.084       .  S
C847        C848   1.410       .  A
C848        N849   1.438       .  S
N849        H853   1.046       .  S
N849        H854   1.045       .  S
N852        H855   1.046       .  S
N852        H856   1.043       .  S
C857        C858   1.403       .  A
C857        C862   1.404       .  A
C857        H864   1.084       .  S
C858        C859   1.419       .  A
C859        C860   1.407       .  A
C859        N866   1.433       .  S
C860        C861   1.403       .  A
C860        H865   1.083       .  S
C861        C862   1.409       .  A
C862        N863   1.438       .  S
N863        H867   1.046       .  S
N863        H868   1.045       .  S
N866        H869   1.045       .  S
N866        H870   1.043       .  S
C871       C1896   1.411       .  A
C871        C876   1.400       .  A
C871        H878   1.085       .  S
C872       C1895   1.412   1_455  A
C872        C873   1.409       .  A
C873        C874   1.399   1_556  A
C873        N880   1.433   1_556  S
C874       C1899   1.413   1_455  A
C875       C1898   1.413       .  A
C875        C876   1.410   1_554  A
C876        N877   1.432       .  S
N877        H881   1.044       .  S
N877        H882   1.045       .  S
N880        H883   1.046       .  S
N880        H884   1.045   1_554  S
C885       C1910   1.410       .  A
C885        C890   1.404       .  A
C885       H1916   1.083       .  S
C886       C1909   1.410   1_455  A
C886       C1911   1.412   1_455  A
C887       C1910   1.416       .  A
C887        C888   1.390       .  A
C887        N894   1.433       .  S
C888        C889   1.404       .  A
C888        H893   1.084       .  S
C889        C890   1.409       .  A
C890        N891   1.438       .  S
N891        H895   1.046       .  S
N891        H896   1.045       .  S
H892       C1909   1.084   1_455  S
N894        H897   1.045       .  S
N894        H898   1.045       .  S
C899        C900   1.401       .  A
C899        C904   1.395       .  A
C899        H906   1.085       .  S
C900        C901   1.403       .  A
C901        C902   1.401       .  A
C901        N908   1.432       .  S
C902        C903   1.409       .  A
C902        H907   1.083       .  S
C903        C904   1.413       .  A
C904        N905   1.433       .  S
N905        H909   1.045       .  S
N905        H910   1.046       .  S
N908        H911   1.045       .  S
N908        H912   1.046       .  S
C913        C914   1.403       .  A
C913        C918   1.409       .  A
C913        H920   1.084       .  S
C914        C915   1.403       .  A
C915        C916   1.406       .  A
C915        N922   1.437       .  S
C916        C917   1.412       .  A
C917        C918   1.414       .  A
C918        N919   1.437       .  S
N919        H923   1.045       .  S
N919        H924   1.046       .  S
N922        H925   1.046       .  S
N922        H926   1.045       .  S
C927        C928   1.397       .  A
C927        C932   1.404       .  A
C927        H934   1.084       .  S
C928        C929   1.414       .  A
C929        C930   1.402       .  A
C929        N936   1.432       .  S
C930        C931   1.404       .  A
C930        H935   1.084       .  S
C931        C932   1.418       .  A
C932        N933   1.433       .  S
N933        H937   1.046       .  S
N933        H938   1.045       .  S
N936        H939   1.045       .  S
N936        H940   1.045       .  S
C941        C942   1.404       .  A
C941        C946   1.408       .  A
C941        H948   1.083       .  S
C942        C943   1.425       .  A
C943        C944   1.399       .  A
C943        N950   1.440       .  S
C944        C945   1.396       .  A
C944        H949   1.084       .  S
C945        C946   1.417       .  A
C946        N947   1.438       .  S
N947        H951   1.045       .  S
N947        H952   1.046       .  S
N950        H953   1.046       .  S
N950        H954   1.046       .  S
C955        C956   1.402       .  A
C955        C960   1.393       .  A
C955        H962   1.084       .  S
C956       C1538   1.480       .  S
C956        C957   1.414       .  A
C957        C958   1.407       .  A
C957       N1988   1.432       .  S
C958        C959   1.401       .  A
C958        H963   1.084       .  S
C959        C960   1.415       .  A
C960        N961   1.434       .  S
N961        H965   1.046       .  S
N961        H966   1.044       .  S
N964       C1981   1.432   1_455  S
N964        H967   1.045       .  S
N964        H968   1.046       .  S
C969        C970   1.405       .  A
C969        C974   1.405       .  A
C969        H976   1.083       .  S
C970        C971   1.412       .  A
C971        C972   1.407       .  A
C971        N978   1.432       .  S
C972        C973   1.407       .  A
C972        H977   1.084       .  S
C973        C974   1.418       .  A
C974        N975   1.438       .  S
N975        H979   1.045       .  S
N975        H980   1.046       .  S
N978        H981   1.046       .  S
N978        H982   1.045       .  S
C983        C984   1.404       .  A
C983        C988   1.411       .  A
C983        H990   1.084       .  S
C984        C985   1.404       .  A
C985        C986   1.395       .  A
C985        N992   1.432       .  S
C986        C987   1.411       .  A
C986        H991   1.084       .  S
C987        C988   1.415       .  A
C988        N989   1.437       .  S
N989        H993   1.045       .  S
N989        H994   1.046       .  S
N992        H995   1.046       .  S
N992        H996   1.044   1_545  S
C997        C998   1.403       .  A
C997       C1002   1.410       .  A
C997       H1004   1.084       .  S
C998        C999   1.406       .  A
C999       C1000   1.398       .  A
C999       N1006   1.431   1_565  S
C1000      C1001   1.409       .  A
C1000      H1005   1.084       .  S
C1001      C1002   1.416       .  A
C1002      N1003   1.438       .  S
N1003      H1007   1.045       .  S
N1003      H1008   1.046       .  S
N1006      H1009   1.046   1_545  S
N1006      H1010   1.045       .  S
C1011      C1012   1.395   1_545  A
C1011      C2040   1.405   1_455  A
C1011      H1018   1.084       .  S
C1012      C1013   1.423       .  A
C1013      C2038   1.403   1_455  A
C1013      N1020   1.433       .  S
C1014      C2037   1.407       .  A
C1016      C2035   1.404       .  A
C1016      N1017   1.432       .  S
N1017      H2045   1.046       .  S
N1020      H1023   1.045   1_455  S
N1020      H2048   1.046   1_556  S
H1021      N2041   1.046       .  S
H1024      N2044   1.046   1_554  S
O1025      C1040   1.279       .  A
O1025     Al1033   1.967       .  S
C1026      O1036   1.272       .  A
C1026      O1027   1.262       .  A
O1027     Al1029   1.882       .  S
O1028      C1030   1.261       .  A
O1028     Al1029   1.924       .  S
Al1029     O1037   1.941       .  S
Al1029     O1039   1.854       .  S
Al1029     O1038   1.777       .  S
C1030      O1043   1.253       .  A
C1030      C1496   1.471   1_565  S
O1031      C1041   1.281       .  A
O1031     Al1033   1.988       .  S
O1032      C1045   1.264       .  A
O1032     Al1042   1.947       .  S
Al1033     O1046   1.869       .  S
Al1033     O1043   1.889       .  S
Al1033     O1038   1.765       .  S
O1034      C1041   1.252       .  A
O1034     Al1042   1.840       .  S
O1035      C1044   1.264       .  A
O1035     Al1042   1.895       .  S
O1036     Al1042   1.939       .  S
O1037      C1044   1.269       .  A
O1038     Al1042   1.775       .  S
O1039      C1040   1.259       .  A
C1040      C1454   1.487       .  S
C1041      C1524   1.485       .  S
C1044      C1482   1.489       .  S
C1045      O1046   1.249       .  A
C1045      C2025   1.488       .  S
O1047      C1062   1.250       .  A
O1047     Al1055   1.869       .  S
C1048      O1058   1.262       .  A
C1048      O1049   1.267       .  A
C1048      C1398   1.476       .  S
O1049     Al1051   1.926       .  S
O1050      C1052   1.255       .  A
O1050     Al1051   1.853       .  S
Al1051     O1059   1.892       .  S
Al1051     O1061   1.947       .  S
Al1051     O1060   1.776       .  S
C1052      O1065   1.279       .  A
C1052      C1384   1.485       .  S
O1053      C1063   1.254       .  A
O1053     Al1055   1.891       .  S
O1054      C1067   1.258       .  A
O1054     Al1064   1.848       .  S
Al1055     O1068   1.950       .  S
Al1055     O1065   1.977       .  S
Al1055     O1060   1.763       .  S
O1056      C1063   1.262       .  A
O1056     Al1064   1.928       .  S
O1057      C1066   1.272       .  A
O1057     Al1064   1.944       .  S
O1058     Al1064   1.883       .  S
O1059      C1066   1.263       .  A
O1060     Al1064   1.775       .  S
O1061      C1062   1.263       .  A
C1062      C1941   1.491       .  S
C1063      C1440   1.474       .  S
C1066      C1485   1.490       .  S
C1067      O1068   1.275       .  A
C1067      C1412   1.480       .  S
O1069      C1084   1.249       .  A
O1069     Al1077   1.866       .  S
C1070      O1080   1.263       .  A
C1070      O1071   1.275       .  A
C1070      C1457   1.475       .  S
O1071     Al1073   1.954       .  S
O1072      C1074   1.250       .  A
O1072     Al1073   1.831       .  S
Al1073     O1081   1.899       .  S
Al1073     O1083   1.948       .  S
Al1073     O1082   1.776       .  S
C1074      O1087   1.276       .  A
C1074      C1331   1.477       .  S
O1075      C1085   1.256       .  A
O1075     Al1077   1.911       .  S
O1076      C1089   1.262       .  A
O1076     Al1086   1.857       .  S
Al1077     O1090   1.960       .  S
Al1077     O1087   1.970       .  S
Al1077     O1082   1.767       .  S
O1078      C1085   1.258       .  A
O1078     Al1086   1.923       .  S
O1079      C1088   1.266       .  A
O1079     Al1086   1.937       .  S
O1080     Al1086   1.879       .  S
O1081      C1088   1.261       .  A
O1082     Al1086   1.775       .  S
O1083      C1084   1.266       .  A
C1084      C1356   1.488       .  S
C1085      C1373   1.478   1_565  S
C1088      C1342   1.492       .  S
C1089      O1090   1.278       .  A
C1089      C1471   1.466       .  S
O1091      C1106   1.275       .  A
O1091     Al1099   1.950       .  S
C1092      O1102   1.271       .  A
C1092      O1093   1.261       .  A
C1092      C1415   1.474       .  S
O1093     Al1095   1.872       .  S
O1094      C1096   1.261       .  A
O1094     Al1095   1.923       .  S
Al1095     O1103   1.941       .  S
Al1095     O1105   1.855       .  S
Al1095     O1104   1.773       .  S
C1096      O1109   1.256       .  A
C1096      C1286   1.474       .  S
O1097      C1107   1.276       .  A
O1097     Al1099   1.974       .  S
O1098      C1111   1.264       .  A
O1098     Al1108   1.939       .  S
Al1099     O1112   1.869       .  S
Al1099     O1109   1.898       .  S
Al1099     O1104   1.770       .  S
O1100      C1107   1.253       .  A
O1100     Al1108   1.844       .  S
O1101      C1110   1.261       .  A
O1101     Al1108   1.895       .  S
O1102     Al1108   1.936       .  S
O1103      C1110   1.269       .  A
O1104     Al1108   1.776       .  S
O1105      C1106   1.261       .  A
C1106      C1401   1.476       .  S
C1107      C1317   1.480       .  S
C1110      C1345   1.492       .  S
C1111      O1112   1.252       .  A
C1111      C1300   1.486       .  S
O1113      C1128   1.274       .  A
O1113     Al1121   1.947       .  S
C1114      O1124   1.273       .  A
C1114      O1115   1.260       .  A
O1115     Al1117   1.878       .  S
O1116      C1118   1.261       .  A
O1116     Al1117   1.918       .  S
Al1117     O1125   1.935       .  S
Al1117     O1127   1.849       .  S
Al1117     O1126   1.774       .  S
C1118      O1131   1.254       .  A
C1118      C1303   1.469       .  S
O1119      C1129   1.278       .  A
O1119     Al1121   1.975       .  S
O1120      C1133   1.265       .  A
O1120     Al1642   1.950       .  S
Al1121     O1646   1.869       .  S
Al1121     O1131   1.889       .  S
Al1121     O1126   1.768       .  S
O1122      C1129   1.253       .  A
O1122     Al1130   1.842       .  S
O1123      C1132   1.262       .  A
O1123     Al1130   1.894       .  S
O1124     Al1130   1.945       .  S
O1125      C1132   1.270       .  A
O1126     Al1130   1.774       .  S
O1127      C1128   1.258       .  A
C1128      C1247   1.465       .  S
C1129      C1899   1.482       .  S
Al1130     O1632   1.955   1_554  S
C1132      C1272   1.487       .  S
C1133      O1134   1.250       .  A
C1133      C1289   1.491       .  S
O1134     Al1633   1.868       .  S
O1135      C1662   1.250   1_554  A
O1135     Al1143   1.872       .  S
C1136      O1146   1.264       .  A
C1136      O1137   1.273       .  A
O1137     Al1139   1.939       .  S
O1138      C1140   1.251       .  A
O1138     Al1139   1.841       .  S
Al1139     O1147   1.902       .  S
Al1139     O1661   1.941   1_554  S
Al1139     O1148   1.776       .  S
C1140      O1153   1.279       .  A
C1140      C1527   1.486   1_554  S
O1141      C1151   1.255       .  A
O1141     Al1143   1.904       .  S
O1142      C1155   1.263       .  A
O1142     Al1152   1.855       .  S
Al1143     O1156   1.966       .  S
Al1143     O1153   1.977       .  S
Al1143     O1148   1.766       .  S
O1144      C1151   1.258       .  A
O1144     Al1152   1.919       .  S
O1145      C1154   1.266       .  A
O1145     Al1152   1.931       .  S
O1146     Al1152   1.881       .  S
O1147      C1154   1.262       .  A
O1148     Al1152   1.777       .  S
O1149      C1150   1.265       .  A
O1149     Al1651   1.946       .  S
C1150      O1647   1.249       .  A
C1150      C1370   1.481       .  S
C1151      C1359   1.475   1_545  S
C1154      C1275   1.489       .  S
C1155      O1156   1.280       .  A
C1155      C1230   1.488       .  S
O1157      C1172   1.248       .  A
O1157     Al1165   1.863       .  S
C1158      O1168   1.260       .  A
C1158      O1159   1.271       .  A
C1158      C1244   1.478       .  S
O1159     Al1161   1.935       .  S
O1160      C1162   1.254       .  A
O1160     Al1161   1.848       .  S
Al1161     O1169   1.901       .  S
Al1161     O1171   1.944       .  S
Al1161     O1170   1.778       .  S
C1162      O1175   1.278       .  A
C1162      C1314   1.482       .  S
O1163      C1173   1.255       .  A
O1163     Al1165   1.898       .  S
O1164      C1177   1.260       .  A
O1164     Al1174   1.854       .  S
Al1165     O1178   1.949       .  S
Al1165     O1175   1.976       .  S
Al1165     O1170   1.770       .  S
O1166      C1173   1.260       .  A
O1166     Al1174   1.915       .  S
O1167      C1176   1.267       .  A
O1167     Al1174   1.935       .  S
O1168     Al1174   1.877       .  S
O1169      C1176   1.264       .  A
O1170     Al1174   1.773       .  S
O1171      C1172   1.264       .  A
C1172      C1443   1.482       .  S
C1173      C1426   1.475       .  S
C1176      C1205   1.491       .  S
C1177      O1178   1.275       .  A
C1177      C1258   1.470       .  S
O1179      C1194   1.275       .  A
O1179     Al1187   1.946       .  S
C1180      O1190   1.271       .  A
C1180      O1181   1.262       .  A
C1180      C1233   1.475       .  S
O1181     Al1183   1.880       .  S
O1182      C1184   1.261       .  A
O1182     Al1183   1.926       .  S
Al1183     O1191   1.944       .  S
Al1183     O1193   1.851       .  S
Al1183     O1192   1.771       .  S
C1184      O1197   1.255       .  A
C1184      C1510   1.477   1_545  S
O1185      C1195   1.276       .  A
O1185     Al1187   1.966       .  S
O1186      C1199   1.263       .  A
O1186     Al1196   1.939       .  S
Al1187     O1200   1.876       .  S
Al1187     O1197   1.900       .  S
Al1187     O1192   1.770       .  S
O1188      C1195   1.252       .  A
O1188     Al1196   1.834       .  S
O1189      C1198   1.261       .  A
O1189     Al1196   1.892       .  S
O1190     Al1196   1.941       .  S
O1191      C1198   1.270       .  A
O1192     Al1196   1.776       .  S
O1193      C1194   1.261       .  A
C1194      C1219   1.479       .  S
C1195      C1328   1.477       .  S
C1198      C1202   1.491       .  S
C1199      O1200   1.251       .  A
C1199      C1499   1.487       .  S
C1201      C1202   1.404       .  A
C1201      C1206   1.402       .  A
C1201      H1208   1.084       .  S
C1202      C1203   1.417       .  A
C1203      C1204   1.409       .  A
C1203      N1210   1.438       .  S
C1204      C1205   1.406       .  A
C1204      H1209   1.083       .  S
C1205      C1206   1.414       .  A
C1206      N1207   1.433       .  S
N1207      H1211   1.046       .  S
N1207      H1212   1.046       .  S
N1210      H1213   1.046       .  S
N1210      H1214   1.045       .  S
C1215      C1216   1.408       .  A
C1215      C1220   1.404       .  A
C1216      C1217   1.404       .  A
C1217      C1218   1.393       .  A
C1217      N1224   1.433       .  S
C1218      C1219   1.408       .  A
C1218      H1223   1.084       .  S
C1219      C1220   1.412       .  A
C1220      N1221   1.438       .  S
N1221      H1225   1.046       .  S
N1221      H1226   1.046       .  S
N1224      H1227   1.046       .  S
N1224      H1228   1.046       .  S
C1229      C1230   1.413       .  A
C1229      C1234   1.398       .  A
C1229      H1236   1.083       .  S
C1230      C1231   1.413       .  A
C1231      C1232   1.406       .  A
C1231      N1238   1.437       .  S
C1232      C1233   1.406       .  A
C1232      H1237   1.082       .  S
C1233      C1234   1.402       .  A
C1234      N1235   1.433       .  S
N1235      H1239   1.046       .  S
N1235      H1240   1.046       .  S
N1238      H1241   1.044       .  S
N1238      H1242   1.046       .  S
C1243      C1244   1.402       .  A
C1243      C1248   1.396       .  A
C1243      H1250   1.083       .  S
C1244      C1245   1.417       .  A
C1245      C1246   1.405       .  A
C1245      N1252   1.437       .  S
C1246      C1247   1.399       .  A
C1246      H1251   1.084       .  S
C1247      C1248   1.410       .  A
C1248      N1249   1.439       .  S
N1249      H1253   1.045       .  S
N1249      H1254   1.045       .  S
N1252      H1255   1.045       .  S
N1252      H1256   1.046       .  S
C1257      C1258   1.401       .  A
C1257      C1262   1.407       .  A
C1257      H1264   1.084       .  S
C1258      C1259   1.411       .  A
C1259      C1260   1.397       .  A
C1259      N1266   1.439       .  S
C1260      C1261   1.402       .  A
C1260      H1265   1.083       .  S
C1261      C1262   1.418       .  A
N1263      H1267   1.046       .  S
N1263      H1268   1.045       .  S
N1266      H1269   1.045       .  S
N1266      H1270   1.046       .  S
C1271      C1272   1.404       .  A
C1271      C1276   1.400       .  A
C1271      H1278   1.084       .  S
C1272      C1273   1.415       .  A
C1273      C1274   1.408       .  A
C1273      N1792   1.438       .  S
C1274      C1275   1.407       .  A
C1274      H1791   1.083       .  S
C1275      C1276   1.414       .  A
C1276      N1277   1.433       .  S
N1277      H1281   1.046       .  S
N1277      H1282   1.046       .  S
H1279      C1786   1.083       .  S
N1280      C1785   1.438       .  S
N1280      H1283   1.046       .  S
N1280      H1284   1.045       .  S
C1285      C1286   1.403       .  A
C1285      C1290   1.409       .  A
C1285      H1292   1.084       .  S
C1286      C1287   1.405       .  A
C1287      C1288   1.405       .  A
C1287      N1294   1.438       .  S
C1288      C1289   1.412       .  A
C1288      H1293   1.084       .  S
C1289      C1290   1.414       .  A
C1290      N1291   1.437       .  S
N1291      H1295   1.045       .  S
N1291      H1296   1.046       .  S
N1294      H1297   1.046       .  S
N1294      H1298   1.045       .  S
C1299      C1300   1.411       .  A
C1299      C1304   1.404       .  A
C1299      H1306   1.083       .  S
C1300      C1301   1.411       .  A
C1301      C1302   1.405       .  A
C1301      N1308   1.433       .  S
C1302      C1303   1.403       .  A
C1302      H1307   1.084       .  S
C1303      C1304   1.402       .  A
C1304      N1305   1.437       .  S
N1305      H1309   1.046       .  S
N1305      H1310   1.046       .  S
N1308      H1311   1.045       .  S
N1308      H1312   1.045       .  S
C1313      C1314   1.412       .  A
C1313      C1318   1.401       .  A
C1313      H1320   1.084       .  S
C1314      C1315   1.407       .  A
C1315      C1316   1.407       .  A
C1315      N1322   1.437       .  S
C1316      C1317   1.411       .  A
C1316      H1321   1.084       .  S
C1317      C1318   1.409       .  A
C1318      N1319   1.432       .  S
N1319      H1323   1.044       .  S
N1319      H1324   1.045       .  S
N1322      H1325   1.045       .  S
N1322      H1326   1.046       .  S
C1327      C1328   1.413       .  A
C1327      C1332   1.404       .  A
C1327      H1334   1.084       .  S
C1328      C1329   1.408   1_545  A
C1329      C1330   1.397       .  A
C1329      N1336   1.433       .  S
C1330      C1331   1.412       .  A
C1330      H1335   1.085       .  S
C1331      C1332   1.406   1_565  A
C1332      N1333   1.438       .  S
N1333      H1337   1.046       .  S
N1333      H1338   1.044       .  S
N1336      H1339   1.045       .  S
N1336      H1340   1.045   1_565  S
C1341      C1342   1.407       .  A
C1341      C1346   1.404       .  A
C1341      H1348   1.084       .  S
C1342      C1343   1.416       .  A
C1343      C1344   1.406       .  A
C1343      N1350   1.438       .  S
C1344      C1345   1.405       .  A
C1344      H1349   1.083       .  S
C1345      C1346   1.414       .  A
C1346      N1347   1.433       .  S
N1347      H1351   1.046       .  S
N1347      H1352   1.046       .  S
N1350      H1353   1.046       .  S
N1350      H1354   1.045       .  S
C1355      C1356   1.405       .  A
C1355      C1360   1.408       .  A
C1355      H1362   1.084       .  S
C1356      C1357   1.423       .  A
C1357      C1358   1.403       .  A
C1357      N1364   1.434       .  S
C1358      C1359   1.398       .  A
C1358      H1363   1.084       .  S
C1359      C1360   1.410       .  A
C1360      N1361   1.438       .  S
N1361      H1365   1.046       .  S
N1361      H1366   1.045       .  S
N1364      H1367   1.045       .  S
N1364      H1368   1.043       .  S
C1369      C1370   1.403       .  A
C1369      C1374   1.405       .  A
C1369      H1376   1.084       .  S
C1370      C1371   1.419       .  A
C1371      C1372   1.406       .  A
C1371      N1378   1.433       .  S
C1372      C1373   1.401       .  A
C1372      H1377   1.084       .  S
C1373      C1374   1.411       .  A
C1374      N1375   1.437       .  S
N1375      H1379   1.046       .  S
N1375      H1380   1.045       .  S
N1378      H1381   1.045       .  S
N1378      H1382   1.044       .  S
C1383      C1388   1.399       .  A
C1383      H1390   1.085       .  S
C1384      C1385   1.410       .  A
C1385      C1386   1.400       .  A
C1385      N1392   1.432       .  S
C1386      H1903   1.084       .  S
C1387      C1641   1.483       .  S
C1387      C1388   1.410       .  A
C1388      N1389   1.432       .  S
N1389      H1393   1.045       .  S
N1389      H1394   1.044       .  S
H1391      C1898   1.084       .  S
N1392      H1395   1.045       .  S
N1392      H1396   1.045       .  S
C1397      C1402   1.405       .  A
C1399      C1400   1.391       .  A
C1399      N1406   1.433       .  S
C1400      C1401   1.404       .  A
C1400      H1405   1.084       .  S
C1401      C1402   1.408       .  A
C1402      N1403   1.438       .  S
N1403      H1407   1.046       .  S
N1403      H1408   1.045       .  S
N1406      H1409   1.045   1_655  S
N1406      H1410   1.045   1_655  S
C1411      C1412   1.411       .  A
C1411      C1416   1.397       .  A
C1411      H1418   1.084       .  S
C1412      C1413   1.407       .  A
C1413      C1414   1.401       .  A
C1413      N1420   1.432       .  S
C1414      C1415   1.407       .  A
C1414      H1419   1.082       .  S
C1415      C1416   1.405       .  A
C1416      N1417   1.433       .  S
N1417      H1421   1.045       .  S
N1417      H1422   1.046       .  S
N1420      H1423   1.045       .  S
N1420      H1424   1.046       .  S
C1425      C1426   1.405       .  A
C1425      C1430   1.413       .  A
C1425      H1432   1.084       .  S
C1426      C1427   1.403       .  A
C1427      C1428   1.401       .  A
C1427      N1434   1.437       .  S
C1428      C1429   1.411       .  A
C1428      H1945   1.084   1_554  S
C1429      C1574   1.492   1_554  S
C1429      C1430   1.414       .  A
C1430      N1431   1.437       .  S
N1431      H1435   1.046       .  S
N1431      H1436   1.046       .  S
H1433      C1940   1.084       .  S
N1434      H1437   1.045       .  S
N1434      H1438   1.046       .  S
C1439      C1440   1.398       .  A
C1439      C1444   1.405       .  A
C1439      H1446   1.084       .  S
C1440      C1441   1.415       .  A
C1441      C1442   1.400       .  A
C1441      N1448   1.432       .  S
C1442      C1443   1.402       .  A
C1442      H1447   1.084       .  S
C1443      C1444   1.416       .  A
C1444      N1445   1.433       .  S
N1445      H1449   1.046       .  S
N1445      H1450   1.045       .  S
N1448      H1451   1.045       .  S
N1448      H1452   1.045       .  S
C1453      C1454   1.402       .  A
C1453      C1458   1.406       .  A
C1453      H1460   1.083       .  S
C1454      C1455   1.423       .  A
C1455      C1456   1.404       .  A
C1455      N1462   1.439       .  S
C1456      C1457   1.396       .  A
C1456      H1461   1.084       .  S
C1457      C1458   1.415       .  A
C1458      N1459   1.439       .  S
N1459      H1463   1.046       .  S
N1459      H1464   1.046       .  S
N1462      H1465   1.046       .  S
N1462      H1466   1.046       .  S
C1467      C1468   1.402   1_655  A
C1467      C1472   1.391       .  A
C1467      H1474   1.083       .  S
C1468      C1469   1.412   1_455  A
C1469      C1470   1.405       .  A
C1470      C1471   1.401       .  A
C1470      H1475   1.083       .  S
C1471      C1472   1.414       .  A
C1472      N1473   1.434       .  S
N1473      H1477   1.045       .  S
N1473      H1478   1.044       .  S
N1476      H1479   1.045       .  S
N1476      H1480   1.045       .  S
C1481      C1482   1.406       .  A
C1481      C1486   1.406       .  A
C1481      H1488   1.083       .  S
C1482      C1483   1.412       .  A
C1483      C1484   1.403       .  A
C1483      N1490   1.432       .  S
C1484      C1485   1.406       .  A
C1484      H1489   1.084       .  S
C1485      C1486   1.417       .  A
C1486      N1487   1.438       .  S
N1487      H1491   1.046       .  S
N1487      H1492   1.045       .  S
N1490      H1493   1.046       .  S
N1490      H1494   1.045       .  S
C1495      C1496   1.402       .  A
C1495      C1500   1.407       .  A
C1495      H1502   1.084       .  S
C1496      C1497   1.410       .  A
C1497      C1498   1.403       .  A
C1497      N1504   1.438       .  S
C1498      C1499   1.410       .  A
C1498      H1503   1.084       .  S
C1499      C1500   1.414       .  A
C1500      N1501   1.437       .  S
N1501      H1505   1.045       .  S
N1501      H1506   1.046       .  S
N1504      H1507   1.044   1_545  S
N1504      H1508   1.045   1_545  S
C1509      C1510   1.403       .  A
C1509      C1514   1.411       .  A
C1509      H1516   1.084       .  S
C1510      C1511   1.406       .  A
C1511      C1512   1.401       .  A
C1511      N1518   1.432       .  S
C1512      C1513   1.411       .  A
C1512      H1517   1.084   1_554  S
C1513      C1557   1.491   1_554  S
C1513      C1514   1.415       .  A
C1514      N1515   1.437       .  S
N1515      H1519   1.046       .  S
N1515      H1520   1.045       .  S
N1518      H1521   1.046       .  S
N1518      H1522   1.045   1_565  S
C1523      C1524   1.397   1_545  A
C1523      H1530   1.084       .  S
C1524      C1525   1.422       .  A
C1525      N1532   1.433       .  S
C1526      C2039   1.393   1_565  A
C1526      H2043   1.084       .  S
C1527      C2038   1.395   1_545  A
C1527      C2040   1.424       .  A
C1528      C2039   1.423       .  A
C1528      N1529   1.433       .  S
N1529      H2046   1.046   1_655  S
H1531      C2038   1.084   1_554  S
N1532      H1535   1.045       .  S
H1534      N2041   1.046   1_455  S
O1537      C1552   1.278       .  A
O1537     Al1545   1.962       .  S
C1538      O1548   1.273       .  A
C1538      O1539   1.262       .  A
O1539     Al1541   1.888       .  S
O1540      C1542   1.262       .  A
O1540     Al1541   1.924       .  S
Al1541     O1549   1.950       .  S
Al1541     O1551   1.856       .  S
Al1541     O1550   1.777       .  S
C1542      O1555   1.255       .  A
C1542      C2008   1.474   1_565  S
O1543      C1553   1.282       .  A
O1543     Al1545   1.992       .  S
O1544      C1557   1.265       .  A
O1544     Al1554   1.954       .  S
Al1545     O1558   1.870       .  S
Al1545     O1555   1.895       .  S
Al1545     O1550   1.764       .  S
O1546      C1553   1.252       .  A
O1546     Al1554   1.838       .  S
O1547      C1556   1.262       .  A
O1547     Al1554   1.887       .  S
O1548     Al1554   1.941       .  S
O1549      C1556   1.271       .  A
O1550     Al1554   1.775       .  S
O1551      C1552   1.259       .  A
C1552      C1966   1.487       .  S
C1553      C2036   1.482       .  S
C1556      C1994   1.489       .  S
C1557      O1558   1.249       .  A
O1559      C1574   1.249       .  A
O1559     Al1567   1.866       .  S
C1560      O1570   1.263       .  A
C1560      O1561   1.268       .  A
C1560      C1910   1.481       .  S
O1561     Al1563   1.929       .  S
O1562      C1564   1.253       .  A
O1562     Al1563   1.843       .  S
Al1563     O1571   1.892       .  S
Al1563     O1573   1.949       .  S
Al1563     O1572   1.776       .  S
C1564      O1577   1.279       .  A
C1564      C1896   1.483       .  S
O1565      C1575   1.256       .  A
O1565     Al1567   1.901       .  S
O1566      C1579   1.260       .  A
O1566     Al1576   1.856       .  S
Al1567     O1580   1.948       .  S
Al1567     O1577   1.985       .  S
Al1567     O1572   1.763       .  S
O1568      C1575   1.261       .  A
O1568     Al1576   1.925       .  S
O1569      C1578   1.270       .  A
O1569     Al1576   1.942       .  S
O1570     Al1576   1.880       .  S
O1571      C1578   1.263       .  A
O1572     Al1576   1.775       .  S
O1573      C1574   1.264       .  A
C1575      C1952   1.478       .  S
C1578      C1997   1.491       .  S
C1579      O1580   1.276       .  A
C1579      C1924   1.479       .  S
O1581      C1596   1.251       .  A
O1581     Al1589   1.873       .  S
C1582      O1592   1.261       .  A
C1582      O1583   1.273       .  A
C1582      C1969   1.474       .  S
O1583     Al1585   1.947       .  S
O1584      C1586   1.253       .  A
O1584     Al1585   1.843       .  S
Al1585     O1593   1.903       .  S
Al1585     O1595   1.953       .  S
Al1585     O1594   1.776       .  S
C1586      O1599   1.276       .  A
C1586      C1843   1.476       .  S
O1587      C1597   1.256       .  A
O1587     Al1589   1.908       .  S
O1588      C1601   1.258       .  A
O1588     Al1598   1.851       .  S
Al1589     O1602   1.959       .  S
Al1589     O1599   1.971       .  S
Al1589     O1594   1.770       .  S
O1590      C1597   1.260       .  A
O1590     Al1598   1.923       .  S
O1591      C1600   1.267       .  A
O1591     Al1598   1.936       .  S
O1592     Al1598   1.876       .  S
O1593      C1600   1.264       .  A
O1594     Al1598   1.774       .  S
O1595      C1596   1.266       .  A
C1596      C1868   1.492       .  S
C1597      C1885   1.478   1_565  S
C1600      C1854   1.493       .  S
C1601      O1602   1.277       .  A
C1601      C1983   1.465       .  S
O1603      C1618   1.276       .  A
O1603     Al1611   1.958       .  S
C1604      O1614   1.271       .  A
C1604      O1605   1.263       .  A
C1604      C1927   1.480       .  S
O1605     Al1607   1.878       .  S
O1606      C1608   1.262       .  A
O1606     Al1607   1.929       .  S
Al1607     O1615   1.944       .  S
Al1607     O1617   1.855       .  S
Al1607     O1616   1.772       .  S
C1608      O1621   1.255       .  A
C1608      C1798   1.476       .  S
O1609      C1619   1.278       .  A
O1609     Al1611   1.975       .  S
O1610      C1623   1.264       .  A
O1610     Al1620   1.947       .  S
Al1611     O1624   1.864       .  S
Al1611     O1621   1.896       .  S
Al1611     O1616   1.765       .  S
O1612      C1619   1.252       .  A
O1612     Al1620   1.846       .  S
O1613      C1622   1.261       .  A
O1613     Al1620   1.892       .  S
O1614     Al1620   1.936       .  S
O1615      C1622   1.270       .  A
O1616     Al1620   1.778       .  S
O1617      C1618   1.261       .  A
C1618      C1913   1.485       .  S
C1619      C1829   1.486       .  S
C1622      C1857   1.491       .  S
C1623      O1624   1.250       .  A
C1623      C1812   1.487       .  S
O1625      C1640   1.274       .  A
O1625     Al1633   1.945       .  S
C1626      O1636   1.269       .  A
C1626      O1627   1.260       .  A
O1627     Al1629   1.878       .  S
O1628      C1630   1.263       .  A
O1628     Al1629   1.926       .  S
Al1629     O1637   1.950       .  S
Al1629     O1639   1.854       .  S
Al1629     O1638   1.773       .  S
C1630      O1643   1.254       .  A
C1630      C1815   1.472       .  S
O1631      C1641   1.278       .  A
O1631     Al1633   1.976       .  S
O1632      C1645   1.266       .  A
Al1633     O1643   1.889       .  S
Al1633     O1638   1.767       .  S
O1634      C1641   1.254       .  A
O1634     Al1642   1.850       .  S
O1635      C1644   1.264       .  A
O1635     Al1642   1.896       .  S
O1636     Al1642   1.931       .  S
O1637      C1644   1.273       .  A
O1638     Al1642   1.777       .  S
O1639      C1640   1.259       .  A
C1640      C1759   1.466       .  S
C1644      C1784   1.494       .  S
C1645      O1646   1.250   1_556  A
C1645      C1801   1.493       .  S
O1647     Al1655   1.874       .  S
C1648      O1658   1.263       .  A
C1648      O1649   1.272       .  A
O1649     Al1651   1.939       .  S
O1650      C1652   1.253       .  A
O1650     Al1651   1.845       .  S
Al1651     O1659   1.903       .  S
Al1651     O1660   1.779       .  S
C1652      O1665   1.280       .  A
C1652      C2039   1.486       .  S
O1653      C1663   1.257       .  A
O1653     Al1655   1.909       .  S
O1654      C1667   1.260       .  A
O1654     Al1664   1.850       .  S
Al1655     O1668   1.963       .  S
Al1655     O1665   1.983       .  S
Al1655     O1660   1.769       .  S
O1656      C1663   1.261       .  A
O1656     Al1664   1.925       .  S
O1657      C1666   1.268       .  A
O1657     Al1664   1.938       .  S
O1658     Al1664   1.880       .  S
O1659      C1666   1.264       .  A
O1660     Al1664   1.771       .  S
O1661      C1662   1.264       .  A
C1662      C1882   1.488       .  S
C1663      C1871   1.479   1_545  S
C1666      C1787   1.493       .  S
C1667      O1668   1.277       .  A
C1667      C1742   1.488       .  S
O1669      C1684   1.250       .  A
O1669     Al1677   1.871       .  S
C1670      O1680   1.260       .  A
C1670      O1671   1.272       .  A
C1670      C1756   1.481       .  S
O1671     Al1673   1.941       .  S
O1672      C1674   1.254       .  A
O1672     Al1673   1.843       .  S
Al1673     O1681   1.907       .  S
Al1673     O1683   1.946       .  S
Al1673     O1682   1.780       .  S
C1674      O1687   1.277       .  A
C1674      C1826   1.485       .  S
O1675      C1685   1.255       .  A
O1675     Al1677   1.899       .  S
O1676      C1689   1.261       .  A
O1676     Al1686   1.858       .  S
Al1677     O1690   1.944       .  S
Al1677     O1687   1.974       .  S
Al1677     O1682   1.771       .  S
O1678      C1685   1.258       .  A
O1678     Al1686   1.912       .  S
O1679      C1688   1.267       .  A
O1679     Al1686   1.932       .  S
O1680     Al1686   1.875       .  S
O1681      C1688   1.265       .  A
O1682     Al1686   1.777       .  S
O1683      C1684   1.265       .  A
C1684      C1955   1.490       .  S
C1685      C1938   1.474       .  S
C1688      C1717   1.493       .  S
C1689      O1690   1.275       .  A
C1689      C1770   1.467       .  S
O1691      C1706   1.276       .  A
O1691     Al1699   1.950       .  S
C1692      O1702   1.273       .  A
C1692      O1693   1.262       .  A
C1692      C1745   1.477       .  S
O1693     Al1695   1.881       .  S
O1694      C1696   1.260       .  A
O1694     Al1695   1.922       .  S
Al1695     O1703   1.940       .  S
Al1695     O1705   1.860       .  S
Al1695     O1704   1.775       .  S
C1696      O1709   1.255       .  A
C1696      C2022   1.474   1_545  S
O1697      C1707   1.274       .  A
O1697     Al1699   1.961       .  S
O1698      C1711   1.264       .  A
O1698     Al1708   1.939       .  S
Al1699     O1712   1.874       .  S
Al1699     O1709   1.901       .  S
Al1699     O1704   1.767       .  S
O1700      C1707   1.253       .  A
O1700     Al1708   1.839       .  S
O1701      C1710   1.260       .  A
O1701     Al1708   1.896       .  S
O1702     Al1708   1.942       .  S
O1703      C1710   1.268       .  A
O1704     Al1708   1.776       .  S
O1705      C1706   1.262       .  A
C1706      C1731   1.484       .  S
C1707      C1840   1.477       .  S
C1710      C1714   1.490       .  S
C1711      O1712   1.253       .  A
C1711      C2011   1.489       .  S
C1713      C1714   1.404       .  A
C1713      C1718   1.402       .  A
C1713      H1720   1.084       .  S
C1714      C1715   1.416       .  A
C1715      C1716   1.410       .  A
C1715      N1722   1.438       .  S
C1716      C1717   1.406       .  A
C1716      H1721   1.083       .  S
C1717      C1718   1.415       .  A
C1718      N1719   1.433       .  S
N1719      H1723   1.046       .  S
N1719      H1724   1.046       .  S
N1722      H1725   1.045       .  S
N1722      H1726   1.046       .  S
C1727      C1728   1.406       .  A
C1727      C1732   1.405       .  A
C1728      C1729   1.404       .  A
C1729      C1730   1.397       .  A
C1729      N1736   1.433       .  S
C1730      C1731   1.410       .  A
C1730      H1735   1.084       .  S
C1731      C1732   1.413       .  A
C1732      N1733   1.438       .  S
N1733      H1737   1.046       .  S
N1733      H1738   1.046       .  S
N1736      H1739   1.046       .  S
N1736      H1740   1.046       .  S
C1741      C1742   1.412       .  A
C1741      C1746   1.396       .  A
C1741      H1748   1.083       .  S
C1742      C1743   1.413       .  A
C1743      C1744   1.409       .  A
C1743      N1750   1.438       .  S
C1744      C1745   1.408       .  A
C1744      H1749   1.080       .  S
C1745      C1746   1.401       .  A
C1746      N1747   1.433       .  S
N1747      H1751   1.045       .  S
N1747      H1752   1.046       .  S
N1750      H1753   1.046       .  S
N1750      H1754   1.046       .  S
C1755      C1756   1.404       .  A
C1755      C1760   1.399       .  A
C1755      H1762   1.083       .  S
C1756      C1757   1.418       .  A
C1757      C1758   1.404       .  A
C1757      N1764   1.437       .  S
C1758      C1759   1.397       .  A
C1758      H1763   1.084       .  S
C1759      C1760   1.411       .  A
C1760      N1761   1.439       .  S
N1761      H1765   1.046       .  S
N1761      H1766   1.045       .  S
N1764      H1767   1.046       .  S
N1764      H1768   1.046       .  S
C1769      C1770   1.398       .  A
C1769      C1774   1.403       .  A
C1769      H1776   1.084       .  S
C1770      C1771   1.411       .  A
C1771      C1772   1.400       .  A
C1771      N1778   1.439       .  S
C1772      C1773   1.403       .  A
C1772      H1777   1.083       .  S
C1773      C1774   1.419       .  A
N1775      H1779   1.046       .  S
N1775      H1780   1.046       .  S
N1778      H1781   1.045       .  S
N1778      H1782   1.046       .  S
C1783      C1784   1.405       .  A
C1783      C1788   1.407       .  A
C1783      H1790   1.083       .  S
C1784      C1785   1.416       .  A
C1785      C1786   1.409       .  A
C1786      C1787   1.406       .  A
C1787      C1788   1.418       .  A
C1788      N1789   1.439       .  S
N1789      H1793   1.044       .  S
N1789      H1794   1.047       .  S
N1792      H1795   1.045       .  S
N1792      H1796   1.046   1_554  S
C1797      C1798   1.404       .  A
C1797      C1802   1.410       .  A
C1797      H1804   1.084       .  S
C1798      C1799   1.404       .  A
C1799      C1800   1.407       .  A
C1799      N1806   1.437       .  S
C1800      C1801   1.412       .  A
C1800      H1805   1.084       .  S
C1801      C1802   1.414       .  A
C1802      N1803   1.437       .  S
N1803      H1807   1.046       .  S
N1803      H1808   1.045       .  S
N1806      H1809   1.046       .  S
N1806      H1810   1.045       .  S
C1811      C1812   1.411       .  A
C1811      C1816   1.404       .  A
C1811      H1818   1.084       .  S
C1812      C1813   1.411       .  A
C1813      C1814   1.408       .  A
C1813      N1820   1.432       .  S
C1814      C1815   1.405       .  A
C1814      H1819   1.084       .  S
C1815      C1816   1.402       .  A
C1816      N1817   1.437       .  S
N1817      H1821   1.045       .  S
N1817      H1822   1.046       .  S
N1820      H1823   1.045       .  S
N1820      H1824   1.046       .  S
C1825      C1826   1.412       .  A
C1825      C1830   1.397       .  A
C1825      H1832   1.083       .  S
C1826      C1827   1.408       .  A
C1827      C1828   1.410       .  A
C1827      N1834   1.438       .  S
C1828      C1829   1.415       .  A
C1828      H1833   1.084       .  S
C1829      C1830   1.408       .  A
C1830      N1831   1.432       .  S
N1831      H1835   1.045       .  S
N1831      H1836   1.045       .  S
N1834      H1837   1.045       .  S
N1834      H1838   1.046       .  S
C1839      C1840   1.411       .  A
C1839      C1844   1.404       .  A
C1839      H1846   1.085       .  S
C1840      C1841   1.417   1_545  A
C1841      C1842   1.401       .  A
C1841      N1848   1.440       .  S
C1842      C1843   1.408       .  A
C1842      H1847   1.085       .  S
C1843      C1844   1.405   1_565  A
C1844      N1845   1.437       .  S
N1845      H1849   1.046       .  S
N1845      H1850   1.042   1_545  S
N1848      H1851   1.040   1_565  S
N1848      H1852   1.045   1_565  S
C1853      C1854   1.406       .  A
C1853      C1858   1.403       .  A
C1853      H1860   1.084       .  S
C1854      C1855   1.418       .  A
C1855      C1856   1.407       .  A
C1855      N1862   1.438       .  S
C1856      C1857   1.405       .  A
C1856      H1861   1.083       .  S
C1857      C1858   1.414       .  A
C1858      N1859   1.433       .  S
N1859      H1863   1.046       .  S
N1859      H1864   1.045       .  S
N1862      H1865   1.046       .  S
N1862      H1866   1.045       .  S
C1867      C1868   1.406       .  A
C1867      C1872   1.411       .  A
C1867      H1874   1.084       .  S
C1868      C1869   1.422       .  A
C1869      C1870   1.403       .  A
C1869      N1876   1.434       .  S
C1870      C1871   1.399       .  A
C1870      H1875   1.084       .  S
C1871      C1872   1.411       .  A
C1872      N1873   1.438       .  S
N1873      H1877   1.046       .  S
N1873      H1878   1.045       .  S
N1876      H1879   1.046       .  S
N1876      H1880   1.043       .  S
C1881      C1882   1.406       .  A
C1881      C1886   1.409       .  A
C1881      H1888   1.084       .  S
C1882      C1883   1.422       .  A
C1883      C1884   1.402       .  A
C1883      N1890   1.433       .  S
C1884      C1885   1.399       .  A
C1884      H1889   1.083       .  S
C1885      C1886   1.410       .  A
C1886      N1887   1.437       .  S
N1887      H1891   1.046       .  S
N1887      H1892   1.046       .  S
N1890      H1893   1.046       .  S
N1890      H1894   1.042       .  S
C1895      C1900   1.399       .  A
C1895      H1902   1.085       .  S
C1896      C1897   1.410       .  A
C1897      C1898   1.403   1_556  A
C1897      N1904   1.432   1_556  S
C1899      C1900   1.410   1_554  A
C1900      N1901   1.432       .  S
N1901      H1905   1.043       .  S
N1901      H1906   1.047       .  S
N1904      H1907   1.045       .  S
N1904      H1908   1.046   1_554  S
C1909      C1914   1.406       .  A
C1911      C1912   1.391       .  A
C1911      N1918   1.433       .  S
C1912      C1913   1.409       .  A
C1912      H1917   1.084       .  S
C1913      C1914   1.411       .  A
C1914      N1915   1.438       .  S
N1915      H1919   1.046       .  S
N1915      H1920   1.046       .  S
N1918      H1921   1.045   1_655  S
N1918      H1922   1.045       .  S
C1923      C1924   1.408       .  A
C1923      C1928   1.398       .  A
C1923      H1930   1.084       .  S
C1924      C1925   1.407       .  A
C1925      C1926   1.401       .  A
C1925      N1932   1.432       .  S
C1926      C1927   1.408       .  A
C1926      H1931   1.082       .  S
C1927      C1928   1.409       .  A
C1928      N1929   1.433       .  S
N1929      H1933   1.045       .  S
N1929      H1934   1.046       .  S
N1932      H1935   1.045       .  S
N1932      H1936   1.046       .  S
C1937      C1938   1.404       .  A
C1937      C1942   1.411       .  A
C1937      H1944   1.084       .  S
C1938      C1939   1.403       .  A
C1939      C1940   1.404       .  A
C1939      N1946   1.437       .  S
C1940      C1941   1.411       .  A
C1941      C1942   1.415       .  A
C1942      N1943   1.437       .  S
N1943      H1947   1.046       .  S
N1943      H1948   1.045       .  S
N1946      H1949   1.045       .  S
N1946      H1950   1.046       .  S
C1951      C1952   1.399       .  A
C1951      C1956   1.407       .  A
C1951      H1958   1.084       .  S
C1952      C1953   1.415       .  A
C1953      C1954   1.403       .  A
C1953      N1960   1.432       .  S
C1954      C1955   1.405       .  A
C1954      H1959   1.084       .  S
C1955      C1956   1.417       .  A
C1956      N1957   1.433       .  S
N1957      H1961   1.046       .  S
N1957      H1962   1.045       .  S
N1960      H1963   1.045       .  S
N1960      H1964   1.045       .  S
C1965      C1966   1.403       .  A
C1965      C1970   1.406       .  A
C1965      H1972   1.083       .  S
C1966      C1967   1.423       .  A
C1967      C1968   1.402       .  A
C1967      N1974   1.439       .  S
C1968      C1969   1.396       .  A
C1968      H1973   1.084       .  S
C1969      C1970   1.414       .  A
C1970      N1971   1.438       .  S
N1971      H1975   1.045       .  S
N1971      H1976   1.046       .  S
N1974      H1977   1.046       .  S
N1974      H1978   1.045       .  S
C1979      C1980   1.400   1_655  A
C1979      C1984   1.391       .  A
C1979      H1986   1.084       .  S
C1980      C1981   1.413   1_455  A
C1981      C1982   1.405       .  A
C1982      C1983   1.400       .  A
C1982      H1987   1.084       .  S
C1983      C1984   1.415       .  A
C1984      N1985   1.434       .  S
N1985      H1989   1.046       .  S
N1985      H1990   1.044       .  S
N1988      H1991   1.045       .  S
N1988      H1992   1.046       .  S
C1993      C1994   1.406       .  A
C1993      C1998   1.404       .  A
C1993      H2000   1.083       .  S
C1994      C1995   1.411       .  A
C1995      C1996   1.405       .  A
C1995      N2002   1.432       .  S
C1996      C1997   1.408       .  A
C1996      H2001   1.084       .  S
C1997      C1998   1.416       .  A
C1998      N1999   1.438       .  S
N1999      H2003   1.046       .  S
N1999      H2004   1.045       .  S
N2002      H2005   1.046       .  S
N2002      H2006   1.045       .  S
C2007      C2008   1.404       .  A
C2007      C2012   1.412       .  A
C2007      H2014   1.084       .  S
C2008      C2009   1.405       .  A
C2009      C2010   1.398       .  A
C2009      N2016   1.431       .  S
C2010      C2011   1.409       .  A
C2010      H2015   1.084       .  S
C2011      C2012   1.416       .  A
C2012      N2013   1.437       .  S
N2013      H2017   1.045       .  S
N2013      H2018   1.046       .  S
N2016      H2019   1.046       .  S
N2016      H2020   1.044   1_545  S
C2021      C2022   1.402       .  A
C2021      C2026   1.409       .  A
C2021      H2028   1.084       .  S
C2022      C2023   1.407       .  A
C2023      C2024   1.400       .  A
C2023      N2030   1.431       .  S
C2024      C2025   1.410       .  A
C2024      H2029   1.084       .  S
C2025      C2026   1.416       .  A
C2026      N2027   1.437       .  S
N2027      H2031   1.045       .  S
N2027      H2032   1.046       .  S
N2030      H2033   1.046       .  S
N2030      H2034   1.045   1_565  S
C2035      C2036   1.394   1_545  A
C2035      H2042   1.084       .  S
C2036      C2037   1.422       .  A
C2037      N2044   1.433       .  S
C2040      N2041   1.433       .  S
N2044      H2047   1.045       .  S
