geometry optimzed in LAMMPS
_audit_creation_date              2020-11-30 
_audit_creation_method            'lammps2cif' 
_symmetry_space_group_name_H-M    'P1' 
_symmetry_Int_Tables_number       1 
_symmetry_cell_setting            triclinic 
loop_ 
_symmetry_equiv_pos_as_xyz 
  x,y,z 
_cell_length_a                    43.09817385 
_cell_length_b                    35.54869904878116 
_cell_length_c                    39.54900552287163 
_cell_angle_alpha                 89.91755843402922 
_cell_angle_beta                  90.51586292690453 
_cell_angle_gamma                 89.80766678550039 
loop_ 
_atom_site_label 
_atom_site_type_symbol 
_atom_site_fract_x 
_atom_site_fract_y 
_atom_site_fract_z 
_atom_site_charge 
O1          O  0.15412330  0.95168992  0.39476367    -0.82500
C2          C  0.04175977  0.89697685  0.36192621     0.96800
O3          O  0.06535891  0.90836781  0.34652007    -0.71600
O4          O  0.11653097  0.94744351  0.33856069    -0.75200
Al5        Al  0.10575629  0.90131321  0.36241092     1.49000
C6          C  0.11015780  0.98161091  0.34436663     0.92100
O7          O  0.07554339  0.98569640  0.43490474    -0.81500
O8          O  0.08726878  0.91619469  0.47087065    -0.75000
Al9        Al  0.11336121  0.96539942  0.41335574     1.90100
O10         O  0.04219434  0.94008183  0.42735522    -0.74100
O11         O  0.09337511  0.85509984  0.43098011    -0.73900
O12         O  0.04401294  0.88115443  0.39070228    -0.79600
O13         O  0.09808411  0.84953380  0.37622587    -0.77800
O14         O  0.09609967  0.92239968  0.40148182    -1.13900
O15         O  0.14626023  0.89389938  0.37663748    -0.73100
C16         C  0.16455722  0.92022413  0.38401917     0.97600
C17         C  0.04796022  0.97289579  0.43685768     0.94000
Al18       Al  0.06906528  0.89962960  0.42800098     1.55600
O19         O  0.10073567  0.99122373  0.37313176    -0.77800
C20         C  0.09771128  0.83463328  0.40542554     0.98200
C21         C  0.11187281  0.93415741  0.47781211     0.93000
O22         O  0.12858624  0.94593073  0.45425975    -0.83100
O23         O  0.13507652  0.55910793  0.46234245    -0.82500
C24         C  0.04385685  0.60793566  0.37237381     0.96800
O25         O  0.04761381  0.62441237  0.40071776    -0.71600
O26         O  0.04850656  0.56862019  0.44130782    -0.75200
Al27       Al  0.07541652  0.60807562  0.43719278     1.49000
C28         C  0.05371984  0.53526023  0.44971313     0.92100
O29         O  0.10360928  0.51269454  0.38290577    -0.81500
O30         O  0.14875914  0.60953587  0.38061652    -0.75000
Al31       Al  0.11794540  0.53974744  0.42206205     1.90100
O32         O  0.11762600  0.55522868  0.34649619    -0.74100
O33         O  0.10057012  0.65412942  0.38059750    -0.73900
O34         O  0.06654463  0.59443579  0.35655420    -0.79600
O35         O  0.09993213  0.65262427  0.43574472    -0.77800
O36         O  0.10043958  0.58289956  0.40990325    -1.13900
O37         O  0.09621234  0.59359436  0.47935030    -0.73100
C38         C  0.12011245  0.57386721  0.48597245     0.97600
C39         C  0.11160558  0.52138937  0.35337578     0.94000
Al40       Al  0.10775265  0.60184309  0.36930355     1.55600
O41         O  0.08067119  0.52088765  0.44571162    -0.77800
C42         C  0.10236727  0.67112641  0.40861951     0.98200
C43         C  0.16772020  0.58384700  0.38839367     0.93000
O44         O  0.15816056  0.55282828  0.40112988    -0.83100
O45         O  0.38500817  0.94393152  0.25473572    -0.82500
C46         C  0.29111770  0.89875493  0.34058250     0.96800
O47         O  0.29676180  0.88239391  0.31266704    -0.71600
O48         O  0.29764204  0.93799419  0.27170032    -0.75200
Al49       Al  0.32492569  0.89892231  0.27739975     1.49000
C50         C  0.30318210  0.97094239  0.26256139     0.92100
O51         O  0.35212794  0.99720542  0.32857280    -0.81500
O52         O  0.39633512  0.90138754  0.33995158    -0.75000
Al53       Al  0.36688938  0.96719516  0.29202878     1.90100
O54         O  0.36187350  0.95643048  0.36859991    -0.74100
O55         O  0.34973890  0.85582885  0.33635136    -0.73900
O56         O  0.31263529  0.91482283  0.35672159    -0.79600
O57         O  0.35062752  0.85530893  0.28115363    -0.77800
O58         O  0.34880888  0.92534120  0.30544083    -1.13900
O59         O  0.34568458  0.91293769  0.23517067    -0.73100
C60         C  0.37001775  0.93182672  0.22983611     0.97600
C61         C  0.35726501  0.98994006  0.35926026     0.94000
Al62       Al  0.35464206  0.90849579  0.34719556     1.55600
O63         O  0.33030223  0.98495287  0.26590696    -0.77800
C64         C  0.35297818  0.83784880  0.30896729     0.98200
C65         C  0.41536775  0.92463842  0.32845206     0.93000
O66         O  0.40612152  0.95525642  0.31472358    -0.83100
O67         O  0.40675684  0.55554557  0.31668680    -0.82500
C68         C  0.29317376  0.61288289  0.34359052     0.96800
O69         O  0.31561174  0.59891415  0.36006744    -0.71600
O70         O  0.36618826  0.55880775  0.37173304    -0.75200
Al71       Al  0.35718175  0.60526463  0.34835084     1.49000
C72         C  0.35997879  0.52509626  0.36470853     0.92100
O73         O  0.32933534  0.52421894  0.27253521    -0.81500
O74         O  0.34557139  0.59645690  0.23792272    -0.75000
Al75       Al  0.36668084  0.54272286  0.29605313     1.90100
O76         O  0.29760275  0.57260662  0.27545128    -0.74100
O77         O  0.35086088  0.65504944  0.28099382    -0.73900
O78         O  0.29784222  0.62892343  0.31525068    -0.79600
O79         O  0.35110330  0.65745357  0.33601804    -0.77800
O80         O  0.34978414  0.58613454  0.30763074    -1.13900
O81         O  0.39844129  0.61186146  0.33836324    -0.73100
C82         C  0.41682863  0.58670768  0.32859210     0.97600
C83         C  0.30247128  0.53883032  0.26857767     0.94000
Al84       Al  0.32521461  0.61153002  0.27956356     1.55600
O85         O  0.35229522  0.51636729  0.33502692    -0.77800
C86         C  0.35376415  0.67395787  0.30776335     0.98200
C87         C  0.36938605  0.57661107  0.23202787     0.93000
O88         O  0.38383859  0.56130966  0.25600283    -0.83100
O89         O  0.34411205  0.45484480  0.06775383    -0.82500
C90         C  0.45809143  0.39768986  0.09781613     0.96800
O91         O  0.43570018  0.41169857  0.11375756    -0.71600
O92         O  0.38533867  0.45262707  0.12341862    -0.75200
Al93       Al  0.39403889  0.40540217  0.10092311     1.49000
C94         C  0.39127660  0.48632146  0.11570449     0.92100
O95         O  0.42158786  0.48536756  0.02379788    -0.81500
O96         O  0.40401079  0.41579218  0.48930569    -0.75000
Al97       Al  0.38422922  0.46715914  0.04737601     1.90100
O98         O  0.45422525  0.43842907  0.03083863    -0.74100
O99         O  0.40095391  0.35578091  0.03368573    -0.73900
O100        O  0.45311407  0.38100336  0.06979308    -0.79600
O101        O  0.39997123  0.35257599  0.08877572    -0.77800
O102        O  0.40151861  0.42426125  0.06028973    -1.13900
O103        O  0.35284157  0.39884598  0.08993828    -0.73100
C104        C  0.33415102  0.42389429  0.07997156     0.97600
C105        C  0.44878892  0.47134578  0.02107563     0.94000
Al106      Al  0.42659119  0.39915238  0.03327426     1.55600
O107        O  0.39851508  0.49454333  0.08588532    -0.77800
C108        C  0.39822070  0.33633032  0.06020108     0.98200
C109        C  0.38008435  0.43528360  0.48268988     0.93000
O110        O  0.36510623  0.45005042  0.50625808    -0.83100
O111        O  0.36502670  0.06109626  0.00262459    -0.82500
C112        C  0.45756853  0.10672783  0.09175466     0.96800
O113        O  0.45299595  0.12433414  0.06404487    -0.71600
O114        O  0.45119822  0.07079671  0.02102624    -0.75200
Al115      Al  0.42418668  0.10999976  0.02796130     1.49000
C116        C  0.44613907  0.03740982  0.01268524     0.92100
O117        O  0.39714478  0.01226506  0.08044582    -0.81500
O118        O  0.35224307  0.10882320  0.08685037    -0.75000
Al119      Al  0.38268341  0.04075707  0.04217481     1.90100
O120        O  0.38478077  0.05399445  0.11825479    -0.74100
O121        O  0.40037744  0.15362224  0.08697469    -0.73900
O122        O  0.43535601  0.09288024  0.10802904    -0.79600
O123        O  0.39930591  0.15430354  0.03199974    -0.77800
O124        O  0.40015862  0.08348278  0.05520352    -1.13900
O125        O  0.40104453  0.09942862  0.48317634    -0.73100
C126        C  0.37864295  0.07747126  0.47673752     0.97600
C127        C  0.39112683  0.02053395  0.11062119     0.94000
Al128      Al  0.39370332  0.10090149  0.09665666     1.55600
O129        O  0.41963634  0.02257475  0.01779320    -0.77800
C130        C  0.39747716  0.17183376  0.05967044     0.98200
C131        C  0.33334809  0.08442217  0.07623103     0.93000
O132        O  0.34301492  0.05361648  0.06328366    -0.83100
O133        O  0.11871493  0.44975092  0.20891044    -0.82500
C134        C  0.20836650  0.39719952  0.12014080     0.96800
O135        O  0.20454184  0.38225491  0.14908694    -0.71600
O136        O  0.20542177  0.43949249  0.18779938    -0.75200
Al137      Al  0.17788333  0.40028504  0.18501393     1.49000
C138        C  0.20033052  0.47297794  0.19553149     0.92100
O139        O  0.15064601  0.49493782  0.12987624    -0.81500
O140        O  0.10376272  0.39952271  0.12790282    -0.75000
Al141      Al  0.13592371  0.46880251  0.16880822     1.90100
O142        O  0.13595807  0.45252572  0.09337739    -0.74100
O143        O  0.15071662  0.35349839  0.12943563    -0.73900
O144        O  0.18584792  0.41155276  0.10420923    -0.79600
O145        O  0.15266707  0.35627243  0.18462163    -0.77800
O146        O  0.15277222  0.42523780  0.15723851    -1.13900
O147        O  0.15805554  0.41624828  0.22690260    -0.73100
C148        C  0.13399510  0.43569498  0.23297769     0.97600
C149        C  0.14257559  0.48622650  0.10027523     0.94000
Al150      Al  0.14474959  0.40578407  0.11692242     1.55600
O151        O  0.17320577  0.48712879  0.19260458    -0.77800
C152        C  0.14907061  0.33729437  0.15788512     0.98200
C153        C  0.08580735  0.42641110  0.13422838     0.93000
O154        O  0.09580256  0.45698029  0.14730157    -0.90300
O155        O  0.09589914  0.05522333  0.14390237    -0.82500
C156        C  0.20754374  0.11529423  0.11439296     0.96800
O157        O  0.18450207  0.10219817  0.09850844    -0.71600
O158        O  0.13393884  0.06167988  0.08795352    -0.75200
Al159      Al  0.14346340  0.10749875  0.11284078     1.49000
C160        C  0.14053633  0.02757192  0.09371054     0.92100
O161        O  0.17439089  0.02239933  0.18464522    -0.81500
O162        O  0.16080786  0.09111271  0.22209550    -0.75000
Al163      Al  0.13650139  0.04213099  0.16291740     1.90100
O164        O  0.20702486  0.06934740  0.17962625    -0.74100
O165        O  0.15406029  0.15315806  0.18238383    -0.73900
O166        O  0.20445536  0.12926039  0.14375615    -0.79600
O167        O  0.14976261  0.15921258  0.12747498    -0.77800
O168        O  0.15293918  0.08601763  0.15215100    -1.13900
O169        O  0.10242909  0.11327360  0.12530099    -0.73100
C170        C  0.08489720  0.08668228  0.13364169     0.97600
C171        C  0.20172382  0.03579005  0.18703895     0.94000
Al172      Al  0.17921848  0.10910878  0.17986816     1.55600
O173        O  0.14965997  0.01769510  0.12267786    -0.77800
C174        C  0.14995714  0.17384711  0.15672681     0.98200
C175        C  0.13646169  0.07233012  0.22813386     0.93000
O176        O  0.12063897  0.05947560  0.20406484    -0.83100
C177        C  0.12838939  0.23534691  0.13696997    -0.21000
C178        C  0.14716402  0.21553688  0.16020138    -0.07600
C179        C  0.16498479  0.23626063  0.18403248     0.13300
C180        C  0.16374685  0.27584742  0.18366752    -0.21100
C181        C  0.14589045  0.29560342  0.15960815    -0.07600
C182        C  0.12753152  0.27495626  0.13630175     0.13300
C183        C  0.10669305  0.29438910  0.11087279    -0.24400
H184        H  0.11472598  0.21968199  0.11869101     0.14500
H185        H  0.17808647  0.29155692  0.20130304     0.14600
C186        C  0.18692451  0.21714723  0.20855243    -0.24400
H187        H  0.09236351  0.27397507  0.09639535     0.04800
H188        H  0.12076096  0.31024292  0.09237067     0.08000
H189        H  0.09072414  0.31393904  0.12407151     0.08000
H190        H  0.20395770  0.19981156  0.19448016     0.08000
H191        H  0.17374199  0.19908670  0.22620426     0.08000
H192        H  0.20014970  0.23777595  0.22400508     0.04800
C193        C  0.00621526  0.13145841  0.11745876    -0.21000
C194        C  0.99034303  0.10088692  0.10362967    -0.07600
C195        C  0.00463787  0.06496916  0.10278358     0.13300
C196        C  0.03491491  0.06086434  0.11504622    -0.21100
C197        C  0.05143734  0.09168628  0.12757194    -0.07600
C198        C  0.03673323  0.12744488  0.12944863     0.13300
C199        C  0.05280521  0.16149899  0.14404611    -0.24400
H200        H  0.99479439  0.15865374  0.11842723     0.14500
H201        H  0.04623931  0.03366803  0.11310611     0.14600
C202        C  0.48689739  0.02980622  0.09086252    -0.24400
H203        H  0.03664791  0.18572968  0.14653442     0.04800
H204        H  0.07184133  0.17068721  0.12730671     0.08000
H205        H  0.06220932  0.15481151  0.16959240     0.08000
H206        H  0.49972500  0.01852123  0.06892429     0.08000
H207        H  0.46255807  0.03498185  0.08298480     0.08000
H208        H  0.48701631  0.00769516  0.11067852     0.04800
C209        C  0.24567255  0.07576440  0.08526594    -0.21000
C210        C  0.23858625  0.11065112  0.09989292    -0.07600
C211        C  0.26185706  0.13798184  0.10320777     0.13300
C212        C  0.29199315  0.12900448  0.09314030    -0.21100
C213        C  0.29986719  0.09284931  0.08094309    -0.07600
C214        C  0.27599635  0.06618074  0.07601997     0.13300
C215        C  0.28211243  0.02716877  0.06268499    -0.24400
H216        H  0.22776402  0.05473893  0.08364543     0.14500
H217        H  0.30974985  0.15027321  0.09612708     0.14600
C218        C  0.25514414  0.17654309  0.11728885    -0.24400
H219        H  0.26051671  0.01035578  0.06070763     0.04800
H220        H  0.29818131  0.01189138  0.08002803     0.08000
H221        H  0.29223490  0.02891473  0.03701685     0.08000
H222        H  0.24844973  0.17445448  0.14423949     0.08000
H223        H  0.23605197  0.18999022  0.10255850     0.08000
H224        H  0.27574803  0.19516118  0.11599834     0.04800
C225        C  0.24610035  0.43271615  0.08623687    -0.21000
C226        C  0.23950808  0.40050753  0.10561302    -0.07600
C227        C  0.26311208  0.37409870  0.11228190     0.13300
C228        C  0.29320333  0.38211324  0.10189340    -0.21100
C229        C  0.30068422  0.41608520  0.08525607    -0.07600
C230        C  0.27636754  0.44086663  0.07582477     0.13300
C231        C  0.28168419  0.47566732  0.05491310    -0.24400
H232        H  0.22766690  0.45261506  0.08048183     0.14500
H233        H  0.31119197  0.36181651  0.10803955     0.14600
C234        C  0.25690076  0.33731650  0.13006673    -0.24400
H235        H  0.25959040  0.49038984  0.04862651     0.04800
H236        H  0.29295310  0.46786210  0.03080417     0.08000
H237        H  0.29647469  0.49577496  0.06892204     0.08000
H238        H  0.23781892  0.32214043  0.11692426     0.08000
H239        H  0.25057920  0.34242611  0.15679217     0.08000
H240        H  0.27763210  0.31866931  0.13026858     0.04800
C241        C  0.01476879  0.39610281  0.08535226    -0.21000
C242        C  0.99091190  0.40636130  0.10733683    -0.07600
C243        C  0.99854258  0.42553668  0.13794557     0.13300
C244        C  0.02977162  0.43289030  0.14570104    -0.21100
C245        C  0.05331681  0.42158053  0.12394639    -0.07600
C246        C  0.04571805  0.40348287  0.09305343     0.13300
C247        C  0.06989467  0.39241483  0.06741857    -0.24400
H248        H  0.00926841  0.38246366  0.06156727     0.14500
H249        H  0.03593544  0.44678625  0.16919328     0.14600
C250        C  0.47452909  0.43163066  0.16708533    -0.24400
H251        H  0.05925229  0.38303128  0.04319095     0.04800
H252        H  0.08409817  0.36861382  0.07707878     0.08000
H253        H  0.08505720  0.41675867  0.06181914     0.08000
H254        H  0.46096775  0.40649283  0.17453857     0.08000
H255        H  0.45881822  0.45355623  0.15657181     0.08000
H256        H  0.48535209  0.44339238  0.19035929     0.04800
C257        C  0.38764232  0.27458299  0.08812045    -0.21000
C258        C  0.39489390  0.29433104  0.05837177    -0.07600
C259        C  0.40081171  0.27319371  0.02859700     0.13300
C260        C  0.40014012  0.23362480  0.02983443    -0.21100
C261        C  0.39433562  0.21388479  0.05993639    -0.07600
C262        C  0.38745051  0.23497082  0.08946289     0.13300
C263        C  0.37994583  0.21639496  0.12271262    -0.24400
H264        H  0.38274887  0.29029013  0.11093953     0.14500
H265        H  0.40536236  0.21793357  0.00710426     0.14600
C266        C  0.41616106  0.29336419  0.49659806    -0.24400
H267        H  0.37345072  0.23726445  0.14231448     0.04800
H268        H  0.40050519  0.20080168  0.13248427     0.08000
H269        H  0.36006198  0.19692775  0.11934486     0.08000
H270        H  0.43671233  0.31067711  0.50328440     0.08000
H271        H  0.38963688  0.30992554  0.98674610     0.08000
H272        H  0.42359922  0.27260021  0.47731987     0.04800
C273        C  0.33855065  0.48190898  0.40857327    -0.21000
C274        C  0.36422202  0.49568609  0.39096723    -0.07600
C275        C  0.39423594  0.48304604  0.40017096     0.13300
C276        C  0.39806203  0.45821881  0.42755084    -0.21100
C277        C  0.37279787  0.44732812  0.44743071    -0.07600
C278        C  0.34244640  0.45796468  0.43677812     0.13300
C279        C  0.31377608  0.44496234  0.45481774    -0.24400
H280        H  0.31543576  0.49109148  0.40118684     0.14500
H281        H  0.42137585  0.45057791  0.43559122     0.14600
C282        C  0.42250371  0.49729281  0.38220563    -0.24400
H283        H  0.29799410  0.43086319  0.43649643     0.04800
H284        H  0.30156521  0.46955986  0.46581214     0.08000
H285        H  0.31900427  0.42441642  0.47521736     0.08000
H286        H  0.42404297  0.52828123  0.38511631     0.08000
H287        H  0.42086072  0.49002269  0.35497264     0.08000
H288        H  0.44425741  0.48482283  0.39260297     0.04800
C289        C  0.35315466  0.55638144  0.17480256    -0.21000
C290        C  0.37768443  0.56510110  0.19703024    -0.07600
C291        C  0.40804363  0.55258428  0.18878432     0.13300
C292        C  0.41230763  0.52798304  0.16128398    -0.21100
C293        C  0.38714584  0.51643659  0.14123237    -0.07600
C294        C  0.35757675  0.53226003  0.14709533     0.13300
C295        C  0.33040820  0.52263905  0.12468860    -0.24400
H296        H  0.32988140  0.56577727  0.18069630     0.14500
H297        H  0.43525329  0.51705529  0.15604776     0.14600
C298        C  0.43633537  0.56421306  0.20878255    -0.24400
H299        H  0.30875670  0.53683914  0.13289841     0.04800
H300        H  0.32645869  0.49184792  0.12514427     0.08000
H301        H  0.33541674  0.53166371  0.09842378     0.08000
H302        H  0.44677660  0.53924072  0.22142941     0.08000
H303        H  0.43106678  0.58584025  0.22809648     0.08000
H304        H  0.45365813  0.57661114  0.19142508     0.04800
C305        C  0.22070377  0.51251461  0.24166555    -0.21000
C306        C  0.22646225  0.49301156  0.21171229    -0.07600
C307        C  0.25766851  0.48647030  0.20181408     0.13300
C308        C  0.28212216  0.49936270  0.22234106    -0.21100
C309        C  0.27635560  0.51881950  0.25233242    -0.07600
C310        C  0.24514432  0.52559571  0.26206379     0.13300
C311        C  0.23723286  0.54619197  0.29416543    -0.24400
H312        H  0.19693287  0.51643846  0.24974596     0.14500
H313        H  0.30590394  0.49556040  0.21422561     0.14600
C314        C  0.26554235  0.46678990  0.16918969    -0.24400
H315        H  0.21192650  0.54603319  0.29902076     0.04800
H316        H  0.24405889  0.57609061  0.29217587     0.08000
H317        H  0.24918303  0.53272515  0.31604395     0.08000
H318        H  0.25369849  0.48108202  0.14766635     0.08000
H319        H  0.25864556  0.43682513  0.17015493     0.08000
H320        H  0.29085435  0.46704193  0.16441338     0.04800
C321        C  0.28321320  0.00683257  0.21338170    -0.21000
C322        C  0.27740670  0.99033512  0.24483445    -0.07600
C323        C  0.24617587  0.98522895  0.25514372     0.13300
C324        C  0.22181414  0.99775001  0.23424781    -0.21100
C325        C  0.22758522  0.01491997  0.20316791    -0.07600
C326        C  0.25872472  0.01899908  0.19232603     0.13300
C327        C  0.26628463  0.03507044  0.15814759    -0.24400
H328        H  0.30695436  0.00889042  0.20469132     0.14500
H329        H  0.19807292  0.99539224  0.24283490     0.14600
C330        C  0.23810362  0.96696154  0.28837895    -0.24400
H331        H  0.29145446  0.03294868  0.15257138     0.04800
H332        H  0.25994280  0.06526687  0.15704160     0.08000
H333        H  0.25345945  0.01931917  0.13826959     0.08000
H334        H  0.24989984  0.98177261  0.30956384     0.08000
H335        H  0.24470595  0.93684510  0.28837784     0.08000
H336        H  0.21279453  0.96757542  0.29280051     0.04800
C337        C  0.36055734  0.77679289  0.27854454    -0.21000
C338        C  0.35731444  0.79599858  0.30945264    -0.07600
C339        C  0.35641272  0.77442626  0.33971924     0.13300
C340        C  0.35701158  0.73503514  0.33790506    -0.21100
C341        C  0.35793461  0.71576536  0.30693301    -0.07600
C342        C  0.36083536  0.73717862  0.27678642     0.13300
C343        C  0.36392776  0.71897416  0.24255855    -0.24400
H344        H  0.36195877  0.79285964  0.25530353     0.14500
H345        H  0.35551557  0.71912215  0.36121206     0.14600
C346        C  0.35385646  0.79198193  0.37433320    -0.24400
H347        H  0.36739638  0.74009672  0.22222573     0.04800
H348        H  0.34252351  0.70313489  0.23617675     0.08000
H349        H  0.38429515  0.69975248  0.24258095     0.08000
H350        H  0.33162881  0.80765582  0.37637599     0.08000
H351        H  0.37377956  0.81104007  0.37898849     0.08000
H352        H  0.35413791  0.77057921  0.39482176     0.04800
C353        C  0.40442808  0.97120995  0.19447389    -0.21000
C354        C  0.37941321  0.94567145  0.19544186    -0.07600
C355        C  0.36143037  0.94088593  0.16547059     0.13300
C356        C  0.36782964  0.96319090  0.13667547    -0.21100
C357        C  0.39049293  0.99153875  0.13766702    -0.07600
C358        C  0.40917330  0.99520996  0.16689565     0.13300
C359        C  0.43327688  0.02570001  0.16991018    -0.24400
H360        H  0.41889808  0.97510634  0.21672887     0.14500
H361        H  0.35334717  0.96065093  0.11424291     0.14600
C362        C  0.33457215  0.91396417  0.16394199    -0.24400
H363        H  0.42198461  0.05377436  0.16923147     0.04800
H364        H  0.44978967  0.02348844  0.14882365     0.08000
H365        H  0.44668895  0.02366612  0.19395770     0.08000
H366        H  0.31608424  0.92324954  0.18144851     0.08000
H367        H  0.34259767  0.88523996  0.17088145     0.08000
H368        H  0.32416043  0.91264911  0.13817902     0.04800
C369        C  0.33551812  0.02852667  0.40611514    -0.21000
C370        C  0.36020783  0.02070869  0.38441372    -0.07600
C371        C  0.38874114  0.03948892  0.38943938     0.13300
C372        C  0.39264149  0.06352988  0.41745635    -0.21100
C373        C  0.36900200  0.06823138  0.44136338    -0.07600
C374        C  0.33938628  0.05249622  0.43416704     0.13300
C375        C  0.31164431  0.05948672  0.45624742    -0.24400
H376        H  0.31340105  0.01474154  0.40192843     0.14500
H377        H  0.41541894  0.07509500  0.42271892     0.14600
C378        C  0.41592929  0.03173931  0.36680301    -0.24400
H379        H  0.29214097  0.07041809  0.44049903     0.04800
H380        H  0.31629464  0.08069056  0.47618925     0.08000
H381        H  0.30439580  0.03274509  0.46832674     0.08000
H382        H  0.40972149  0.03889848  0.34025459     0.08000
H383        H  0.42230578  0.00151536  0.36844783     0.08000
H384        H  0.43660800  0.04848004  0.37420792     0.04800
C385        C  0.99717428  0.53147382  0.46137362    -0.21000
C386        C  0.02715285  0.51574067  0.46615436    -0.07600
C387        C  0.03092682  0.48677850  0.49019393     0.13300
C388        C  0.50379620  0.47842237  0.50940985    -0.21100
C389        C  0.47368769  0.49317103  0.50330683    -0.07600
C390        C  0.47007158  0.52098800  0.47808969     0.13300
C391        C  0.43908350  0.53911880  0.47077032    -0.24400
H392        H  0.99383610  0.55380885  0.44297720     0.14500
H393        H  0.50702153  0.45710702  0.52876778     0.14600
C394        C  0.06191583  0.46826297  0.49650417    -0.24400
H395        H  0.94170249  0.56009661  0.45353627     0.04800
H396        H  0.43074728  0.55382980  0.49372021     0.08000
H397        H  0.42208839  0.51458915  0.96481651     0.08000
H398        H  0.07906914  0.48935049  0.50523976     0.08000
H399        H  0.07018066  0.45484881  0.47289457     0.08000
H400        H  0.55969735  0.45300971  0.52047094     0.04800
C401        C  0.49335476  0.63365084  0.35091599    -0.21000
C402        C  0.01268843  0.60246556  0.35826707    -0.07600
C403        C  0.00124010  0.56588361  0.35204674     0.13300
C404        C  0.46976951  0.56191352  0.33765639    -0.21100
C405        C  0.45029585  0.59327427  0.33414483    -0.07600
C406        C  0.46264459  0.62995560  0.33963251     0.13300
C407        C  0.44412151  0.66553219  0.33346939    -0.24400
H408        H  0.50288760  0.66132965  0.35587019     0.14500
H409        H  0.46070473  0.53401831  0.33291117     0.14600
C410        C  0.02056108  0.53135757  0.35920187    -0.24400
H411        H  0.45888137  0.69102623  0.33526316     0.04800
H412        H  0.42572279  0.66866665  0.35270687     0.08000
H413        H  0.43366573  0.66501589  0.30770621     0.08000
H414        H  0.02742092  0.53065186  0.38622421     0.08000
H415        H  0.04161252  0.53192940  0.34346061     0.08000
H416        H  0.00779033  0.50501074  0.35345072     0.04800
C417        C  0.20628452  0.62122133  0.35701549    -0.21000
C418        C  0.20066681  0.59096730  0.37933525    -0.07600
C419        C  0.22612558  0.56941763  0.39112013     0.13300
C420        C  0.25608920  0.57847926  0.37999085    -0.21100
C421        C  0.26137534  0.60812492  0.35695291    -0.07600
C422        C  0.23596422  0.62999112  0.34561166     0.13300
C423        C  0.23948929  0.66251278  0.32135850    -0.24400
H424        H  0.18709986  0.63795996  0.34741655     0.14500
H425        H  0.27544520  0.56131113  0.38856067     0.14600
C426        C  0.22218928  0.53710379  0.41535646    -0.24400
H427        H  0.24697174  0.65211043  0.29626806     0.04800
H428        H  0.21729701  0.67793370  0.31733577     0.08000
H429        H  0.25668787  0.68284245  0.33153362     0.08000
H430        H  0.20804142  0.51470318  0.40340458     0.08000
H431        H  0.21068247  0.54713748  0.43866648     0.08000
H432        H  0.24482816  0.52438946  0.42278824     0.04800
C433        C  0.16362597  0.52797772  0.05513314    -0.21000
C434        C  0.13826486  0.51574281  0.07408893    -0.07600
C435        C  0.10844187  0.53026583  0.06651043     0.13300
C436        C  0.10438737  0.55516736  0.03915541    -0.21100
C437        C  0.12916221  0.56459783  0.01795198    -0.07600
C438        C  0.15949814  0.55225501  0.02720683     0.13300
C439        C  0.18663843  0.56309458  0.51290694    -0.24400
H440        H  0.18662865  0.51743723  0.06133125     0.14500
H441        H  0.08108704  0.56402858  0.03223753     0.14600
C442        C  0.08047223  0.51786026  0.08611411    -0.24400
H443        H  0.20292937  0.57671333  0.53099223     0.04800
H444        H  0.18138839  0.58393814  0.49276218     0.08000
H445        H  0.19830465  0.53832342  0.50153530     0.08000
H446        H  0.08369783  0.52480545  0.11326804     0.08000
H447        H  0.07732467  0.48707242  0.08322429     0.08000
H448        H  0.05889561  0.53187655  0.07698555     0.04800
C449        C  0.15120730  0.45768860  0.28964406    -0.21000
C450        C  0.12638776  0.44790705  0.26811367    -0.07600
C451        C  0.09578939  0.45762326  0.27805134     0.13300
C452        C  0.09121173  0.47930064  0.30749477    -0.21100
C453        C  0.11637118  0.49210192  0.32700278    -0.07600
C454        C  0.14657558  0.47985650  0.31865824     0.13300
C455        C  0.17412815  0.49112583  0.33992495    -0.24400
H456        H  0.17467122  0.45050395  0.28238544     0.14500
H457        H  0.06800478  0.48777342  0.31421843     0.14600
C458        C  0.06781642  0.44567544  0.25760168    -0.24400
H459        H  0.19612642  0.47921067  0.33010143     0.04800
H460        H  0.17100109  0.48079622  0.36616751     0.08000
H461        H  0.17625771  0.52218435  0.34018283     0.08000
H462        H  0.06836942  0.41474467  0.25378420     0.08000
H463        H  0.06730830  0.46010014  0.23273380     0.08000
H464        H  0.04583394  0.45285536  0.27058695     0.04800
C465        C  0.20492368  0.88393928  0.35424177    -0.21000
C466        C  0.19782505  0.91381847  0.37636493    -0.07600
C467        C  0.22220800  0.93632950  0.38896944     0.13300
C468        C  0.25250131  0.92961742  0.37764369    -0.21100
C469        C  0.25919710  0.90099688  0.35407880    -0.07600
C470        C  0.23505026  0.87718862  0.34297157     0.13300
C471        C  0.24045635  0.84455464  0.31933438    -0.24400
H472        H  0.18654868  0.86605846  0.34463775     0.14500
H473        H  0.27096628  0.94777669  0.38660134     0.14600
C474        C  0.21681415  0.96701755  0.41453244    -0.24400
H475        H  0.21918810  0.82742862  0.31560950     0.04800
H476        H  0.25875067  0.82575431  0.32992473     0.08000
H477        H  0.24739088  0.85500664  0.29406848     0.08000
H478        H  0.20524694  0.95518919  0.43714611     0.08000
H479        H  0.20221299  0.98961562  0.40334846     0.08000
H480        H  0.23891763  0.98009877  0.42301846     0.04800
C481        C  0.49084257  0.87289237  0.34756785    -0.21000
C482        C  0.51144415  0.90296945  0.34912661    -0.07600
C483        C  0.50122092  0.93961466  0.34049964     0.13300
C484        C  0.46992164  0.94567539  0.33255528    -0.21100
C485        C  0.44871249  0.91594351  0.33276154    -0.07600
C486        C  0.45967596  0.87859771  0.33875012     0.13300
C487        C  0.43919155  0.84432296  0.33561976    -0.24400
H488        H  0.00117420  0.84614086  0.34180690     0.14500
H489        H  0.46185424  0.97400709  0.32725584     0.14600
C490        C  0.52296181  0.97268285  0.34087871    -0.24400
H491        H  0.45277966  0.81777737  0.33749378     0.04800
H492        H  0.42716363  0.84438403  0.31066212     0.08000
H493        H  0.42200076  0.84372262  0.35629731     0.08000
H494        H  0.02125855  0.99450568  0.32919990     0.08000
H495        H  0.53372001  0.97582113  0.36629645     0.08000
H496        H  0.51086235  0.99943422  0.33449266     0.04800
C497        C  0.08834919  0.73250203  0.43471751    -0.21000
C498        C  0.10442075  0.71298762  0.40940513    -0.07600
C499        C  0.12001893  0.73394021  0.38426423     0.13300
C500        C  0.11823783  0.77346806  0.38451366    -0.21100
C501        C  0.10115428  0.79299410  0.40901284    -0.07600
C502        C  0.08620324  0.77204257  0.43473081     0.13300
C503        C  0.06654973  0.79071359  0.46128833    -0.24400
H504        H  0.07618567  0.71659384  0.45386150     0.14500
H505        H  0.12996091  0.78929601  0.36499458     0.14600
C506        C  0.13898676  0.71502576  0.35727408    -0.24400
H507        H  0.05542804  0.76983294  0.47818740     0.04800
H508        H  0.04779138  0.80744963  0.44897839     0.08000
H509        H  0.08113680  0.80925215  0.47737600     0.08000
H510        H  0.12373889  0.69854962  0.34013746     0.08000
H511        H  0.15655206  0.69620369  0.36920093     0.08000
H512        H  0.15147567  0.73579285  0.34145022     0.04800
C513        C  0.09182995  0.02591702  0.29904312    -0.21000
C514        C  0.11631989  0.01065930  0.31818437    -0.07600
C515        C  0.14686363  0.02294043  0.31177409     0.13300
C516        C  0.15263869  0.04692902  0.28415218    -0.21100
C517        C  0.12841615  0.05960173  0.26295829    -0.07600
C518        C  0.09742776  0.05074379  0.27195126     0.13300
C519        C  0.06975009  0.06691178  0.25338154    -0.24400
H520        H  0.06824811  0.01788138  0.30476576     0.14500
H521        H  0.17639275  0.05371186  0.27782339     0.14600
C522        C  0.17338738  0.01048002  0.33411001    -0.24400
H523        H  0.05418759  0.08095635  0.27173481     0.04800
H524        H  0.05677690  0.04400717  0.24054888     0.08000
H525        H  0.07626484  0.08839993  0.23439633     0.08000
H526        H  0.17543862  0.97939613  0.33357264     0.08000
H527        H  0.16900909  0.01973199  0.36042383     0.08000
H528        H  0.19577362  0.02277910  0.32600001     0.04800
C529        C  0.15290138  0.96371756  0.01779959    -0.21000
C530        C  0.12299425  0.94873309  0.01251891    -0.07600
C531        C  0.09981951  0.95669044  0.03688561     0.13300
C532        C  0.10653851  0.98170554  0.06367821    -0.21100
C533        C  0.13571771  0.99881852  0.06696847    -0.07600
C534        C  0.15935939  0.98874018  0.04439157     0.13300
C535        C  0.19115721  0.00546902  0.04762459    -0.24400
H536        H  0.17101224  0.95764391  0.99975105     0.14500
H537        H  0.08857596  0.98899441  0.08154887     0.14600
C538        C  0.06757989  0.94060640  0.03422172    -0.24400
H539        H  0.20712331  0.99475535  0.02793533     0.04800
H540        H  0.20110991  0.99815288  0.07278279     0.08000
H541        H  0.18946995  0.03648933  0.04487050     0.08000
H542        H  0.06884478  0.90941009  0.03414729     0.08000
H543        H  0.05591678  0.95060579  0.01078698     0.08000
H544        H  0.05289926  0.94928977  0.05581236     0.04800
C545        C  0.49466140  0.98041630  0.44696458    -0.21000
C546        C  0.02170834  0.99321281  0.45326069    -0.07600
C547        C  0.02617273  0.02175637  0.47752191     0.13300
C548        C  0.00403267  0.03497117  0.99729046    -0.21100
C549        C  0.47233574  0.01806508  0.99534305    -0.07600
C550        C  0.46904938  0.99300487  0.46568403     0.13300
C551        C  0.43723577  0.97819325  0.45706040    -0.24400
H552        H  0.49083133  0.95946822  0.42746696     0.14500
H553        H  0.00769761  0.05747570  0.01531355     0.14600
C554        C  0.05736658  0.03978740  0.48347185    -0.24400
H555        H  0.43777610  0.95839037  0.43536393     0.04800
H556        H  0.42156780  0.00182276  0.45013282     0.08000
H557        H  0.42765615  0.96294440  0.47910965     0.08000
H558        H  0.07449352  0.01841347  0.49213073     0.08000
H559        H  0.06024095  0.06029925  0.00634029     0.08000
H560        H  0.07055266  0.05149856  0.96319478     0.04800
O561        O  0.15677756  0.95133412  0.89422134    -0.82500
C562        C  0.04252804  0.89732539  0.86390760     0.96800
O563        O  0.06534352  0.90977751  0.84778273    -0.71600
O564        O  0.11572004  0.94953634  0.83826787    -0.75200
Al565      Al  0.10662955  0.90277421  0.86130226     1.49000
C566        C  0.11060344  0.98356171  0.84566750     0.92100
O567        O  0.07923201  0.98479214  0.93692664    -0.81500
O568        O  0.09106530  0.91540089  0.97140986    -0.75000
Al569      Al  0.11667528  0.96482652  0.91419026     1.90100
O570        O  0.04545403  0.93946326  0.92931305    -0.74100
O571        O  0.09744991  0.85500369  0.92973844    -0.73900
O572        O  0.04634065  0.88059042  0.89204844    -0.79600
O573        O  0.10015919  0.85058315  0.87462912    -0.77800
O574        O  0.09867280  0.92258266  0.90145178    -1.13900
O575        O  0.14801796  0.89536416  0.87246838    -0.73100
C576        C  0.16674654  0.92059353  0.88155759     0.97600
C577        C  0.05152334  0.97225222  0.93886384     0.94000
Al578      Al  0.07245812  0.89907354  0.92855189     1.55600
O579        O  0.10366588  0.99253613  0.87539359    -0.77800
C580        C  0.10106620  0.83511141  0.90362188     0.98200
C581        C  0.11564730  0.93346822  0.97804936     0.93000
O582        O  0.13266796  0.94346745  0.95413890    -0.83100
O583        O  0.13538228  0.56128671  0.95900109    -0.82500
C584        C  0.04198395  0.60837046  0.87138326     0.96800
O585        O  0.04703865  0.62594770  0.89892183    -0.71600
O586        O  0.04827628  0.57058398  0.94002989    -0.75200
Al587      Al  0.07550651  0.60969391  0.93465105     1.49000
C588        C  0.05352982  0.53717075  0.94834717     0.92100
O589        O  0.10222668  0.51276207  0.88191877    -0.81500
O590        O  0.14735129  0.60881201  0.87486398    -0.75000
Al591      Al  0.11731761  0.54092802  0.91976609     1.90100
O592        O  0.11439580  0.55404006  0.84361445    -0.74100
O593        O  0.09977052  0.65434483  0.87653650    -0.73900
O594        O  0.06403987  0.59438397  0.85486577    -0.79600
O595        O  0.10070741  0.65337766  0.93174951    -0.77800
O596        O  0.09965478  0.58370401  0.90702851    -1.13900
O597        O  0.09691645  0.59588152  0.97647977    -0.73100
C598        C  0.12096984  0.57639863  0.98276986     0.97600
C599        C  0.10898382  0.52041235  0.85186531     0.94000
Al600      Al  0.10581527  0.60149499  0.86568740     1.55600
O601        O  0.08045025  0.52277532  0.94428674    -0.77800
C602        C  0.10290719  0.67151522  0.90440653     0.98200
C603        C  0.16648362  0.58420311  0.88479141     0.93000
O604        O  0.15702189  0.55352118  0.89813299    -0.83100
O605        O  0.38525750  0.94850390  0.75459154    -0.82500
C606        C  0.29406402  0.89709070  0.84114715     0.96800
O607        O  0.29955119  0.88123057  0.81291187    -0.71600
O608        O  0.29875812  0.93670986  0.77168436    -0.75200
Al609      Al  0.32727411  0.89848621  0.77743395     1.49000
C610        C  0.30322002  0.97042767  0.76415009     0.92100
O611        O  0.35193317  0.99623386  0.83134008    -0.81500
O612        O  0.39918465  0.90146042  0.83825916    -0.75000
Al613      Al  0.36710632  0.96852730  0.79333985     1.90100
O614        O  0.36517015  0.95486853  0.86950341    -0.74100
O615        O  0.35280632  0.85503219  0.83597711    -0.73900
O616        O  0.31564420  0.91290807  0.85751969    -0.79600
O617        O  0.35380636  0.85524299  0.78089403    -0.77800
O618        O  0.35064488  0.92527611  0.80567693    -1.13900
O619        O  0.34806376  0.91342982  0.73528927    -0.73100
C620        C  0.37135150  0.93424904  0.72984092     0.97600
C621        C  0.35897991  0.98839673  0.86147366     0.94000
Al622      Al  0.35759480  0.90753010  0.84705431     1.55600
O623        O  0.32972426  0.98569072  0.76852031    -0.77800
C624        C  0.35618061  0.83737877  0.80851984     0.98200
C625        C  0.41736793  0.92600404  0.82712866     0.93000
O626        O  0.40717187  0.95700385  0.81484300    -0.83100
O627        O  0.40572638  0.55454000  0.81739369    -0.82500
C628        C  0.29331525  0.61430841  0.84710208     0.96800
O629        O  0.31578570  0.59986581  0.86326008    -0.71600
O630        O  0.36639952  0.55865215  0.87388557    -0.75200
Al631      Al  0.35732078  0.60522129  0.85029412     1.49000
C632        C  0.36022176  0.52482203  0.86709158     0.92100
O633        O  0.32720721  0.52376247  0.77583876    -0.81500
O634        O  0.34252568  0.59469015  0.74006490    -0.75000
Al635      Al  0.36516922  0.54210432  0.79815473     1.90100
O636        O  0.29534642  0.57195615  0.77979121    -0.74100
O637        O  0.34979741  0.65402539  0.78235710    -0.73900
O638        O  0.29767781  0.62970040  0.81847012    -0.79600
O639        O  0.35164181  0.65747933  0.83737531    -0.77800
O640        O  0.34874082  0.58567119  0.80998863    -1.13900
O641        O  0.39848944  0.61105722  0.83908052    -0.73100
C642        C  0.41634901  0.58570428  0.82856165     0.97600
C643        C  0.30018120  0.53816215  0.77265079     0.94000
Al644      Al  0.32360809  0.61087249  0.78231950     1.55600
O645        O  0.35176737  0.51601433  0.83766162    -0.77800
C646        C  0.35380854  0.67338734  0.80875066     0.98200
C647        C  0.36638900  0.57507434  0.73380018     0.93000
O648        O  0.38147561  0.56056508  0.75765209    -0.83100
O649        O  0.34225458  0.45583065  0.56718180    -0.82500
C650        C  0.45647862  0.40013348  0.59497878     0.96800
O651        O  0.43420843  0.41350581  0.61153042    -0.71600
O652        O  0.38339038  0.45331904  0.62243284    -0.75200
Al653      Al  0.39267641  0.40655214  0.59936301     1.49000
C654        C  0.38901599  0.48722436  0.61528533     0.92100
O655        O  0.41994640  0.48791916  0.52324586    -0.81500
O656        O  0.40705978  0.41465658  0.99062559    -0.75000
Al657      Al  0.38237820  0.46908918  0.54660898     1.90100
O658        O  0.45193879  0.43991068  0.52758447    -0.74100
O659        O  0.39864763  0.35719757  0.53229052    -0.73900
O660        O  0.45129546  0.38308703  0.56718962    -0.79600
O661        O  0.39909920  0.35362909  0.58731293    -0.77800
O662        O  0.39967040  0.42587691  0.55872796    -1.13900
O663        O  0.35171726  0.39952515  0.58861118    -0.73100
C664        C  0.33273922  0.42469539  0.57966866     0.97600
C665        C  0.44694545  0.47348657  0.51947584     0.94000
Al666      Al  0.42423004  0.40071168  0.53119541     1.55600
O667        O  0.39663786  0.49590025  0.58567821    -0.77800
C668        C  0.39689610  0.33748500  0.55875182     0.98200
C669        C  0.38259962  0.43325998  0.98393521     0.93000
O670        O  0.36708249  0.44689234  0.00760579    -0.83100
O671        O  0.36683162  0.05835136  0.49990051    -0.82500
C672        C  0.45758489  0.10807275  0.58829821     0.96800
O673        O  0.45298273  0.12534945  0.56038891    -0.71600
O674        O  0.45151303  0.07284718  0.51598894    -0.75200
Al675      Al  0.42381622  0.11127487  0.52455627     1.49000
C676        C  0.44747132  0.03880987  0.50923514     0.92100
O677        O  0.39920440  0.01286317  0.57913852    -0.81500
O678        O  0.35218844  0.10835133  0.58354889    -0.75000
Al679      Al  0.38446794  0.04017382  0.54007726     1.90100
O680        O  0.38537268  0.05475401  0.61602400    -0.74100
O681        O  0.39984316  0.15453763  0.58422367    -0.73900
O682        O  0.43545669  0.09460830  0.60499425    -0.79600
O683        O  0.39856705  0.15531084  0.52935959    -0.77800
O684        O  0.40070779  0.08393609  0.55227783    -1.13900
O685        O  0.40237761  0.09784574  0.98604354    -0.73100
C686        C  0.37892720  0.07768173  0.97929153     0.97600
C687        C  0.39244168  0.02131331  0.60908517     0.94000
Al688      Al  0.39380094  0.10159186  0.59368140     1.55600
O689        O  0.42189142  0.02271630  0.51628917    -0.77800
C690        C  0.39674424  0.17279527  0.55701351     0.98200
C691        C  0.33385867  0.08314186  0.57316440     0.93000
O692        O  0.34426655  0.05245199  0.56057021    -0.83100
O693        O  0.11677682  0.44415324  0.71143662    -0.82500
C694        C  0.20796331  0.39557051  0.62337729     0.96800
O695        O  0.20408523  0.37976978  0.65197406    -0.71600
O696        O  0.20371908  0.43553619  0.69260196    -0.75200
Al697      Al  0.17658917  0.39597078  0.68789112     1.49000
C698        C  0.19830375  0.46892000  0.70052971     0.92100
O699        O  0.14907164  0.49164822  0.63369722    -0.81500
O700        O  0.10312370  0.39529697  0.62975082    -0.75000
Al701      Al  0.13424948  0.46437056  0.67213582     1.90100
O702        O  0.13494293  0.44970469  0.59654429    -0.74100
O703        O  0.15090660  0.35029485  0.63067454    -0.73900
O704        O  0.18534171  0.40962883  0.60738084    -0.79600
O705        O  0.15186791  0.35145331  0.68584470    -0.77800
O706        O  0.15166261  0.42132573  0.66013714    -1.13900
O707        O  0.15583562  0.41031949  0.72965478    -0.73100
C708        C  0.13169708  0.42969288  0.73551649     0.97600
C709        C  0.14123209  0.48337131  0.60389155     0.94000
Al710      Al  0.14422965  0.40269132  0.61935290     1.55600
O711        O  0.17115905  0.48288026  0.69687499    -0.77800
C712        C  0.14885162  0.33319392  0.65861727     0.98200
C713        C  0.08473789  0.42159032  0.63671857     0.93000
O714        O  0.09436798  0.45219613  0.65008876    -0.90300
O715        O  0.09476524  0.05155933  0.64250386    -0.82500
C716        C  0.20792685  0.10967291  0.61395470     0.96800
O717        O  0.18492013  0.09638780  0.59822453    -0.71600
O718        O  0.13453934  0.05618759  0.58811554    -0.75200
Al719      Al  0.14373925  0.10249556  0.61187465     1.49000
C720        C  0.14051753  0.02213871  0.59485010     0.92100
O721        O  0.17217397  0.01889382  0.68712976    -0.81500
O722        O  0.15922975  0.08823029  0.72151417    -0.75000
Al723      Al  0.13496021  0.03874040  0.66326550     1.90100
O724        O  0.20573396  0.06450953  0.68015492    -0.74100
O725        O  0.15392025  0.14903947  0.68083417    -0.73900
O726        O  0.20480828  0.12377510  0.64328857    -0.79600
O727        O  0.15018901  0.15457608  0.62589608    -0.77800
O728        O  0.15236720  0.08176981  0.65164894    -1.13900
O729        O  0.10237431  0.10900233  0.62319253    -0.73100
C730        C  0.08425931  0.08294020  0.63145770     0.97600
C731        C  0.19978841  0.03161526  0.68918076     0.94000
Al732      Al  0.17859776  0.10483761  0.67933632     1.55600
O733        O  0.14881647  0.01266583  0.62423626    -0.77800
C734        C  0.15012664  0.16951477  0.65506383     0.98200
C735        C  0.13410233  0.07086488  0.72724496     0.93000
O736        O  0.11834100  0.05871083  0.70291469    -0.83100
C737        C  0.13097176  0.23147953  0.63348785    -0.21000
C738        C  0.14720841  0.21124405  0.65858692    -0.07600
C739        C  0.16194978  0.23158206  0.68510609     0.13300
C740        C  0.16080192  0.27116628  0.68507828    -0.21100
C741        C  0.14568370  0.29138426  0.65920278    -0.07600
C742        C  0.12987154  0.27108853  0.63348987     0.13300
C743        C  0.11122052  0.29079629  0.60628498    -0.24400
H744        H  0.11931324  0.21616967  0.61341982     0.14500
H745        H  0.17295628  0.28651575  0.70477255     0.14600
C746        C  0.18033005  0.21218722  0.71273485    -0.24400
H747        H  0.09842070  0.27053154  0.59004124     0.04800
H748        H  0.12670063  0.30718389  0.58959398     0.08000
H749        H  0.09392546  0.30981333  0.61806027     0.08000
H750        H  0.19910575  0.19491742  0.70149392     0.08000
H751        H  0.16482527  0.19410595  0.72796721     0.08000
H752        H  0.19135789  0.23261506  0.73029994     0.04800
C753        C  0.00640836  0.13004562  0.61430058    -0.21000
C754        C  0.98917321  0.09952624  0.60252846    -0.07600
C755        C  0.00224783  0.06290215  0.60325555     0.13300
C756        C  0.03286353  0.05808689  0.61462285    -0.21100
C757        C  0.05073223  0.08883564  0.62516410    -0.07600
C758        C  0.03698537  0.12524674  0.62592761     0.13300
C759        C  0.05399824  0.15919804  0.63942954    -0.24400
H760        H  0.99586169  0.15778639  0.61430848     0.14500
H761        H  0.04323282  0.03025917  0.61385077     0.14600
C762        C  0.48592903  0.03076142  0.58738809    -0.24400
H763        H  0.03843199  0.18403862  0.64151715     0.04800
H764        H  0.07305361  0.16723315  0.62224007     0.08000
H765        H  0.06349163  0.15301731  0.66504603     0.08000
H766        H  0.49901700  0.01919250  0.56575910     0.08000
H767        H  0.46185248  0.03653949  0.57894221     0.08000
H768        H  0.48530082  0.00858618  0.60710299     0.04800
C769        C  0.24662771  0.07089642  0.58447344    -0.21000
C770        C  0.23888830  0.10572078  0.59891582    -0.07600
C771        C  0.26127097  0.13428322  0.60057591     0.13300
C772        C  0.29140704  0.12646004  0.58970692    -0.21100
C773        C  0.30015117  0.09037792  0.57804975    -0.07600
C774        C  0.27695013  0.06263199  0.57412857     0.13300
C775        C  0.28378483  0.02398420  0.56038831    -0.24400
H776        H  0.22930232  0.04906110  0.58355937     0.14500
H777        H  0.30851553  0.14862028  0.59160836     0.14600
C778        C  0.25352423  0.17302620  0.61356093    -0.24400
H779        H  0.26257406  0.00639953  0.55880917     0.04800
H780        H  0.30060486  0.00918013  0.57720025     0.08000
H781        H  0.29332143  0.02635327  0.53448748     0.08000
H782        H  0.24734738  0.17167338  0.64069835     0.08000
H783        H  0.23373524  0.18492364  0.59883730     0.08000
H784        H  0.27344706  0.19256797  0.61118658     0.04800
C785        C  0.24479945  0.43173878  0.58870582    -0.21000
C786        C  0.23915601  0.39997442  0.60909834    -0.07600
C787        C  0.26355063  0.37487220  0.61650385     0.13300
C788        C  0.29324845  0.38351438  0.60529427    -0.21100
C789        C  0.29962052  0.41668779  0.58682676    -0.07600
C790        C  0.27466747  0.44037636  0.57729239     0.13300
C791        C  0.27890671  0.47434082  0.55500455    -0.24400
H792        H  0.22584736  0.45076836  0.58255721     0.14500
H793        H  0.31180016  0.36419657  0.61202709     0.14600
C794        C  0.25864553  0.33872744  0.63580778    -0.24400
H795        H  0.25643298  0.48827606  0.54888383     0.04800
H796        H  0.28971203  0.46574130  0.53083440     0.08000
H797        H  0.29371528  0.49537456  0.56786053     0.08000
H798        H  0.23997276  0.32204370  0.62349244     0.08000
H799        H  0.25239367  0.34489065  0.66237656     0.08000
H800        H  0.27993653  0.32103430  0.63653663     0.04800
C801        C  0.01364427  0.39286174  0.58693483    -0.21000
C802        C  0.98967450  0.40194996  0.60922259    -0.07600
C803        C  0.99728582  0.41844491  0.64103325     0.13300
C804        C  0.02853990  0.42559460  0.64913250    -0.21100
C805        C  0.05216823  0.41621073  0.62667034    -0.07600
C806        C  0.04461274  0.39959031  0.59511094     0.13300
C807        C  0.06885645  0.38956727  0.56920404    -0.24400
H808        H  0.00821412  0.38080875  0.56244994     0.14500
H809        H  0.03465129  0.43789043  0.67335024     0.14600
C810        C  0.47323816  0.44035260  0.66117948    -0.24400
H811        H  0.05828526  0.38066954  0.54479273     0.04800
H812        H  0.08329492  0.36570606  0.57831670     0.08000
H813        H  0.08377898  0.41426374  0.56410748     0.08000
H814        H  0.45892176  0.41679334  0.67074565     0.08000
H815        H  0.45827176  0.46158408  0.64845245     0.08000
H816        H  0.48418252  0.45427632  0.68338787     0.04800
C817        C  0.38355694  0.27534477  0.58497182    -0.21000
C818        C  0.39413196  0.29541288  0.55662772    -0.07600
C819        C  0.40371912  0.27457023  0.52787461     0.13300
C820        C  0.40300361  0.23497601  0.52861823    -0.21100
C821        C  0.39356299  0.21488270  0.55734350    -0.07600
C822        C  0.38315306  0.23562183  0.58579447     0.13300
C823        C  0.37128291  0.21640434  0.61711583    -0.24400
H824        H  0.37593631  0.29087373  0.60695634     0.14500
H825        H  0.41107122  0.21952296  0.50679523     0.14600
C826        C  0.40899929  0.29155198  0.99545025    -0.24400
H827        H  0.36216830  0.23692900  0.63573608     0.04800
H828        H  0.39032325  0.20055102  0.62978661     0.08000
H829        H  0.35211374  0.19698250  0.61026017     0.08000
H830        H  0.43057598  0.30823839  0.99846575     0.08000
H831        H  0.39789585  0.31122583  0.48474847     0.08000
H832        H  0.41319421  0.27054032  0.97522479     0.04800
C833        C  0.33987680  0.48159010  0.91154582    -0.21000
C834        C  0.36511950  0.49528678  0.89323990    -0.07600
C835        C  0.39520655  0.48171219  0.90107776     0.13300
C836        C  0.39959772  0.45642830  0.92812732    -0.21100
C837        C  0.37480973  0.44564176  0.94877556    -0.07600
C838        C  0.34429121  0.45686432  0.93910474     0.13300
C839        C  0.31587907  0.44368482  0.95751921    -0.24400
H840        H  0.31666906  0.49120931  0.90506294     0.14500
H841        H  0.42302594  0.44826446  0.93525952     0.14600
C842        C  0.42298473  0.49534822  0.88192860    -0.24400
H843        H  0.29954121  0.43051356  0.93921713     0.04800
H844        H  0.30420448  0.46810073  0.96945951     0.08000
H845        H  0.32124629  0.42228108  0.97714563     0.08000
H846        H  0.42514628  0.52626300  0.88496137     0.08000
H847        H  0.42016039  0.48834818  0.85473621     0.08000
H848        H  0.44487444  0.48221629  0.89125322     0.04800
C849        C  0.34946195  0.55327353  0.67712815    -0.21000
C850        C  0.37416004  0.56304332  0.69875220    -0.07600
C851        C  0.40478481  0.55266050  0.68935711     0.13300
C852        C  0.40940454  0.52981765  0.66065378    -0.21100
C853        C  0.38424796  0.51682733  0.64130831    -0.07600
C854        C  0.35415134  0.53019606  0.64873977     0.13300
C855        C  0.32678842  0.51931313  0.62709732    -0.24400
H856        H  0.32600642  0.56112346  0.68391961     0.14500
H857        H  0.43259549  0.52072593  0.65421518     0.14600
C858        C  0.43271003  0.56520210  0.70960199    -0.24400
H859        H  0.30484328  0.53204692  0.63624011     0.04800
H860        H  0.32406420  0.48831522  0.62722845     0.08000
H861        H  0.33067464  0.52915345  0.60083581     0.08000
H862        H  0.43313900  0.55169102  0.73487548     0.08000
H863        H  0.43222583  0.59626181  0.71251872     0.08000
H864        H  0.45471042  0.55746765  0.69691084     0.04800
C865        C  0.21837539  0.50928436  0.74682366    -0.21000
C866        C  0.22425129  0.48933531  0.71704808    -0.07600
C867        C  0.25554195  0.48343914  0.70709957     0.13300
C868        C  0.27986424  0.49759684  0.72712862    -0.21100
C869        C  0.27401329  0.51765425  0.75678489    -0.07600
C870        C  0.24277589  0.52360916  0.76677821     0.13300
C871        C  0.23488551  0.54433265  0.79882809    -0.24400
H872        H  0.19460396  0.51267491  0.75506725     0.14500
H873        H  0.30363902  0.49417451  0.71888766     0.14600
C874        C  0.26368852  0.46307172  0.67488966    -0.24400
H875        H  0.20959121  0.54422202  0.80360013     0.04800
H876        H  0.24173611  0.57424945  0.79693870     0.08000
H877        H  0.24681824  0.53085017  0.82071605     0.08000
H878        H  0.25126338  0.47617549  0.65314460     0.08000
H879        H  0.25761347  0.43288073  0.67674420     0.08000
H880        H  0.28893392  0.46423227  0.66975329     0.04800
C881        C  0.28146681  0.00188251  0.71366944    -0.21000
C882        C  0.27702915  0.98948420  0.74685135    -0.07600
C883        C  0.24638667  0.98701313  0.75949328     0.13300
C884        C  0.22112789  0.99808496  0.73899510    -0.21100
C885        C  0.22559717  0.01108153  0.70596253    -0.07600
C886        C  0.25621618  0.01257139  0.69304910     0.13300
C887        C  0.26241509  0.02481337  0.65725807    -0.24400
H888        H  0.30473017  0.00188093  0.70341996     0.14500
H889        H  0.19787562  0.99798583  0.74927305     0.14600
C890        C  0.24020760  0.97313461  0.79481286    -0.24400
H891        H  0.28717087  0.02096343  0.65041966     0.04800
H892        H  0.25689766  0.05507368  0.65417948     0.08000
H893        H  0.24812730  0.00794485  0.63940387     0.08000
H894        H  0.25341322  0.99022101  0.81346355     0.08000
H895        H  0.24699458  0.94318853  0.79719408     0.08000
H896        H  0.21523080  0.97492408  0.80105274     0.04800
C897        C  0.35940927  0.77586165  0.77792524    -0.21000
C898        C  0.36033168  0.79543605  0.80882801    -0.07600
C899        C  0.36301984  0.77411806  0.83919999     0.13300
C900        C  0.36251766  0.73464059  0.83772683    -0.21100
C901        C  0.35899895  0.71508597  0.80706402    -0.07600
C902        C  0.35863777  0.73623287  0.77654208     0.13300
C903        C  0.35682254  0.71776383  0.74229148    -0.24400
H904        H  0.35806836  0.79168613  0.75451479     0.14500
H905        H  0.36375758  0.71892075  0.86119870     0.14600
C906        C  0.36574003  0.79209314  0.87367484    -0.24400
H907        H  0.35783788  0.73866201  0.72142736     0.04800
H908        H  0.33457919  0.70238363  0.73952671     0.08000
H909        H  0.37666897  0.69810247  0.73919841     0.08000
H910        H  0.34411477  0.80766293  0.87964992     0.08000
H911        H  0.38594680  0.81134280  0.87446425     0.08000
H912        H  0.36925327  0.77090287  0.89403215     0.04800
C913        C  0.40579434  0.97326123  0.69386689    -0.21000
C914        C  0.38102916  0.94735131  0.69514893    -0.07600
C915        C  0.36348739  0.94155863  0.66501034     0.13300
C916        C  0.36960802  0.96374940  0.63596871    -0.21100
C917        C  0.39190318  0.99260778  0.63663626    -0.07600
C918        C  0.41050325  0.99682027  0.66589067     0.13300
C919        C  0.43453914  0.02741872  0.66847372    -0.24400
H920        H  0.42013723  0.97771116  0.71612899     0.14500
H921        H  0.35530056  0.96050265  0.61349507     0.14600
C922        C  0.33749947  0.91342705  0.66350105    -0.24400
H923        H  0.42320921  0.05544306  0.66714061     0.04800
H924        H  0.45118237  0.02474412  0.64756352     0.08000
H925        H  0.44782916  0.02596989  0.69263355     0.08000
H926        H  0.31866126  0.92194783  0.68086581     0.08000
H927        H  0.34640247  0.88514317  0.67067407     0.08000
H928        H  0.32729052  0.91144217  0.63768154     0.04800
C929        C  0.33701407  0.03002917  0.90641526    -0.21000
C930        C  0.36253902  0.01858371  0.88721478    -0.07600
C931        C  0.39206907  0.03368617  0.89488750     0.13300
C932        C  0.39572401  0.05837454  0.92240311    -0.21100
C933        C  0.37086112  0.06692190  0.94381549    -0.07600
C934        C  0.34075916  0.05406692  0.93452996     0.13300
C935        C  0.31223615  0.06448581  0.95422210    -0.24400
H936        H  0.31422426  0.01892879  0.90034680     0.14500
H937        H  0.41889130  0.06748479  0.92942068     0.14600
C938        C  0.42026483  0.02152314  0.87557845    -0.24400
H939        H  0.29467750  0.07707634  0.93683587     0.04800
H940        H  0.31709034  0.08553664  0.97422814     0.08000
H941        H  0.30228213  0.03890790  0.96600994     0.08000
H942        H  0.41709857  0.02824035  0.84834392     0.08000
H943        H  0.42359985  0.99076286  0.87882458     0.08000
H944        H  0.44165430  0.03572838  0.88475439     0.04800
C945        C  0.99700998  0.53237912  0.95946351    -0.21000
C946        C  0.02714838  0.51745502  0.96482779    -0.07600
C947        C  0.03120227  0.48903276  0.98934641     0.13300
C948        C  0.50522162  0.47589213  0.00950534    -0.21100
C949        C  0.47501116  0.49048364  0.00383567    -0.07600
C950        C  0.47066449  0.51760034  0.97813409     0.13300
C951        C  0.43963266  0.53599567  0.97156788    -0.24400
H952        H  0.99351111  0.55421304  0.94062204     0.14500
H953        H  0.50897964  0.45517867  0.02928819     0.14600
C954        C  0.06245150  0.47145753  0.99627112    -0.24400
H955        H  0.94109581  0.55924469  0.95045951     0.04800
H956        H  0.43209026  0.55126820  0.99455609     0.08000
H957        H  0.42194521  0.51756739  0.46312664     0.08000
H958        H  0.07916878  0.49318377  0.00472472     0.08000
H959        H  0.07113163  0.45766122  0.97302126     0.08000
H960        H  0.56160319  0.45156949  0.02006363     0.04800
C961        C  0.49303626  0.63259966  0.84852672    -0.21000
C962        C  0.01013941  0.60284128  0.85887952    -0.07600
C963        C  0.99934258  0.56682437  0.84925420     0.13300
C964        C  0.46917048  0.56055829  0.83728967    -0.21100
C965        C  0.44995801  0.59195798  0.83265129    -0.07600
C966        C  0.46268228  0.62866494  0.83615898     0.13300
C967        C  0.44494883  0.66381497  0.82632750    -0.24400
H968        H  0.50274056  0.66038105  0.85245651     0.14500
H969        H  0.45998907  0.53260506  0.83319549     0.14600
C970        C  0.01991314  0.53257052  0.85140170    -0.24400
H971        H  0.46015549  0.68898842  0.82642998     0.04800
H972        H  0.42601583  0.66948106  0.84443040     0.08000
H973        H  0.43524147  0.66072143  0.80036719     0.08000
H974        H  0.02903779  0.52914581  0.87756603     0.08000
H975        H  0.03943750  0.53588722  0.83367702     0.08000
H976        H  0.00732945  0.50645366  0.84441976     0.04800
C977        C  0.20672593  0.62483193  0.85947840    -0.21000
C978        C  0.19987842  0.59235521  0.87860982    -0.07600
C979        C  0.22477003  0.56983071  0.89055592     0.13300
C980        C  0.25522477  0.57920421  0.88140668    -0.21100
C981        C  0.26156677  0.61035623  0.86053994    -0.07600
C982        C  0.23698264  0.63423137  0.85047509     0.13300
C983        C  0.24214601  0.66980857  0.83041029    -0.24400
H984        H  0.18816757  0.64290076  0.85048587     0.14500
H985        H  0.27410311  0.56094705  0.88939748     0.14600
C986        C  0.21978681  0.53594577  0.91270230    -0.24400
H987        H  0.24982999  0.66293882  0.80444843     0.04800
H988        H  0.22055789  0.68678607  0.82787935     0.08000
H989        H  0.25979875  0.68752823  0.84332071     0.08000
H990        H  0.20629149  0.51439006  0.89880878     0.08000
H991        H  0.20720742  0.54441248  0.93581648     0.08000
H992        H  0.24207334  0.52276605  0.92072228     0.04800
C993        C  0.16224263  0.52645252  0.55955087    -0.21000
C994        C  0.13680779  0.51317298  0.57786460    -0.07600
C995        C  0.10677667  0.52642318  0.56933963     0.13300
C996        C  0.10266742  0.55105411  0.54174128    -0.21100
C997        C  0.12767878  0.56166280  0.52129359    -0.07600
C998        C  0.15809605  0.55054390  0.53144475     0.13300
C999        C  0.18795088  0.56358886  0.00790742    -0.24400
H1000       H  0.18538139  0.51682779  0.56635861     0.14500
H1001       H  0.07929681  0.55893883  0.53412207     0.14600
C1002       C  0.07873330  0.51304035  0.58830733    -0.24400
H1003       H  0.20497311  0.57663934  0.02552702     0.04800
H1004       H  0.18284446  0.58452178  0.98779548     0.08000
H1005       H  0.19871525  0.53828007  0.99644634     0.08000
H1006       H  0.08121088  0.52024097  0.61549764     0.08000
H1007       H  0.07643649  0.48213487  0.58552560     0.08000
H1008       H  0.05700059  0.52617727  0.57857520     0.04800
C1009       C  0.14846690  0.45258007  0.79180872    -0.21000
C1010       C  0.12379870  0.44205081  0.77041994    -0.07600
C1011       C  0.09314704  0.45237639  0.77965608     0.13300
C1012       C  0.08847693  0.47603288  0.80779020    -0.21100
C1013       C  0.11359712  0.48986485  0.82673196    -0.07600
C1014       C  0.14370406  0.47637353  0.81967498     0.13300
C1015       C  0.17099433  0.48796402  0.84113224    -0.24400
H1016       H  0.17198206  0.44475797  0.78515825     0.14500
H1017       H  0.06520969  0.48494534  0.81402837     0.14600
C1018       C  0.06527864  0.43888311  0.75983141    -0.24400
H1019       H  0.19303181  0.47530430  0.83217737     0.04800
H1020       H  0.16722457  0.47870064  0.86758760     0.08000
H1021       H  0.17342538  0.51896059  0.84050393     0.08000
H1022       H  0.06592672  0.40773736  0.75787621     0.08000
H1023       H  0.06478156  0.45139695  0.73415471     0.08000
H1024       H  0.04323626  0.44693075  0.77229551     0.04800
C1025       C  0.20778756  0.88227445  0.85443862    -0.21000
C1026       C  0.20022442  0.91359981  0.87475749    -0.07600
C1027       C  0.22449620  0.93681396  0.88674988     0.13300
C1028       C  0.25499949  0.92936976  0.87647511    -0.21100
C1029       C  0.26209188  0.89946144  0.85446248    -0.07600
C1030       C  0.23817891  0.87490720  0.84414412     0.13300
C1031       C  0.24421160  0.84076954  0.82247987    -0.24400
H1032       H  0.18964256  0.86364022  0.84555449     0.14500
H1033       H  0.27331289  0.94811963  0.88475569     0.14600
C1034       C  0.21882655  0.96933067  0.91034847    -0.24400
H1035       H  0.22314549  0.82313383  0.81944465     0.04800
H1036       H  0.26256830  0.82302692  0.83436417     0.08000
H1037       H  0.25138787  0.84950030  0.79677849     0.08000
H1038       H  0.20704565  0.95920537  0.93348579     0.08000
H1039       H  0.20437439  0.99106121  0.89762433     0.08000
H1040       H  0.24082101  0.98303671  0.91833657     0.04800
C1041       C  0.49330481  0.87487918  0.84286882    -0.21000
C1042       C  0.51205182  0.90489750  0.85260911    -0.07600
C1043       C  0.50095171  0.94231529  0.84950392     0.13300
C1044       C  0.47056715  0.94854040  0.83825891    -0.21100
C1045       C  0.45082294  0.91843508  0.83111260    -0.07600
C1046       C  0.46281946  0.88109325  0.83170936     0.13300
C1047       C  0.44404808  0.84762209  0.82012397    -0.24400
H1048       H  0.00061140  0.84603773  0.84779448     0.14500
H1049       H  0.46186016  0.97710517  0.83676547     0.14600
C1050       C  0.51969503  0.97642402  0.85929858    -0.24400
H1051       H  0.45855572  0.82182366  0.81834084     0.04800
H1052       H  0.43393768  0.85322071  0.79467519     0.08000
H1053       H  0.42533102  0.84143147  0.83828846     0.08000
H1054       H  0.02101952  0.99387654  0.83051082     0.08000
H1055       H  0.54319707  0.96956078  0.86881197     0.08000
H1056       H  0.50750364  0.99212876  0.87949038     0.04800
C1057       C  0.09319526  0.73280539  0.93258609    -0.21000
C1058       C  0.10614686  0.71329432  0.90523838    -0.07600
C1059       C  0.12010607  0.73425360  0.87896717     0.13300
C1060       C  0.11904066  0.77385009  0.87985173    -0.21100
C1061       C  0.10463668  0.79337931  0.90638619    -0.07600
C1062       C  0.09211621  0.77232040  0.93354916     0.13300
C1063       C  0.07620487  0.79082309  0.96303197    -0.24400
H1064       H  0.08263761  0.71696650  0.95286386     0.14500
H1065       H  0.12921606  0.78970082  0.85934400     0.14600
C1066       C  0.13678503  0.71529764  0.85028648    -0.24400
H1067       H  0.06691594  0.76986023  0.98113015     0.04800
H1068       H  0.05637973  0.80816416  0.95382224     0.08000
H1069       H  0.09294360  0.80865906  0.97717000     0.08000
H1070       H  0.12019992  0.69910295  0.83446743     0.08000
H1071       H  0.15496052  0.69623163  0.86064183     0.08000
H1072       H  0.14829341  0.73600097  0.83353125     0.04800
C1073       C  0.09027246  0.02257423  0.79804250    -0.21000
C1074       C  0.11490760  0.01305143  0.81966109    -0.07600
C1075       C  0.14421540  0.02962521  0.81452829     0.13300
C1076       C  0.14909389  0.05221489  0.78582224    -0.21100
C1077       C  0.12524249  0.05870430  0.76201419    -0.07600
C1078       C  0.09486332  0.04556768  0.76951307     0.13300
C1079       C  0.06712568  0.05496463  0.74746176    -0.24400
H1080       H  0.06764123  0.01056833  0.80261182     0.14500
H1081       H  0.17228010  0.06238468  0.78072637     0.14600
C1082       C  0.17068036  0.02215973  0.83870178    -0.24400
H1083       H  0.04507442  0.04650467  0.75961670     0.04800
H1084       H  0.06828254  0.03984484  0.72301200     0.08000
H1085       H  0.06606150  0.08578309  0.74296156     0.08000
H1086       H  0.17564766  0.99155831  0.83966897     0.08000
H1087       H  0.16433479  0.03203239  0.86435495     0.08000
H1088       H  0.19217711  0.03690645  0.83100363     0.04800
C1089       C  0.15075912  0.95884417  0.51863633    -0.21000
C1090       C  0.12006602  0.94663039  0.51280573    -0.07600
C1091       C  0.09725024  0.95523180  0.53732802     0.13300
C1092       C  0.10522236  0.97826760  0.56502420    -0.21100
C1093       C  0.13516105  0.99314093  0.56872109    -0.07600
C1094       C  0.15838385  0.98241536  0.54590309     0.13300
C1095       C  0.19077485  0.99753720  0.54924450    -0.24400
H1096       H  0.16850141  0.95225724  0.50030422     0.14500
H1097       H  0.08756923  0.98638332  0.58297660     0.14600
C1098       C  0.06409756  0.94238714  0.53368948    -0.24400
H1099       H  0.20629802  0.98633654  0.52935010     0.04800
H1100       H  0.20064877  0.98958097  0.57429013     0.08000
H1101       H  0.19009308  0.02863613  0.54681612     0.08000
H1102       H  0.06334003  0.91120776  0.53255981     0.08000
H1103       H  0.05348110  0.95436844  0.51042487     0.08000
H1104       H  0.04970063  0.95157096  0.55534654     0.04800
C1105       C  0.49384297  0.97684742  0.95258452    -0.21000
C1106       C  0.02533912  0.99315846  0.95484267    -0.07600
C1107       C  0.02970930  0.02180428  0.97905520     0.13300
C1108       C  0.00095803  0.03337081  0.49720367    -0.21100
C1109       C  0.47363887  0.01985062  0.49146587    -0.07600
C1110       C  0.46813776  0.98945921  0.97109276     0.13300
C1111       C  0.43677115  0.97241414  0.96407855    -0.24400
H1112       H  0.49029547  0.95465639  0.93419158     0.14500
H1113       H  0.00486635  0.05530998  0.51575550     0.14600
C1114       C  0.06122355  0.03833106  0.98643208    -0.24400
H1115       H  0.43771927  0.95094780  0.94372326     0.04800
H1116       H  0.42016392  0.99457203  0.95592405     0.08000
H1117       H  0.42807008  0.95849031  0.98725532     0.08000
H1118       H  0.07738521  0.01609718  0.99544866     0.08000
H1119       H  0.05635235  0.06200389  0.50315682     0.08000
H1120       H  0.06547049  0.05308800  0.45973102     0.04800
O1121       O  0.65644190  0.95120471  0.39298001    -0.82500
C1122       C  0.54274419  0.89652117  0.36264878     0.96800
O1123       O  0.56565949  0.90916617  0.34672484    -0.71600
O1124       O  0.61682641  0.94836987  0.33705799    -0.75200
Al1125     Al  0.60681504  0.90202241  0.36057237     1.49000
C1126       C  0.61113504  0.98246131  0.34368167     0.92100
O1127       O  0.57874281  0.98515716  0.43478257    -0.81500
O1128       O  0.59176897  0.91489025  0.47032372    -0.75000
Al1129     Al  0.61613508  0.96505820  0.41242374     1.90100
O1130       O  0.54542095  0.93902206  0.42903098    -0.74100
O1131       O  0.59749144  0.85433676  0.42877163    -0.73900
O1132       O  0.54630545  0.88046012  0.39119180    -0.79600
O1133       O  0.59973183  0.85001549  0.37376486    -0.77800
O1134       O  0.59857437  0.92225730  0.40048232    -1.13900
O1135       O  0.64795597  0.89444243  0.37264118    -0.73100
C1136       C  0.66657331  0.91991522  0.38151932     0.97600
C1137       C  0.55128221  0.97220195  0.43760992     0.94000
Al1138     Al  0.57259904  0.89869596  0.42775239     1.55600
O1139       O  0.60273346  0.99160625  0.37289850    -0.77800
C1140       C  0.60073242  0.83437435  0.40264109     0.98200
C1141       C  0.61598593  0.93375399  0.47686487     0.93000
O1142       O  0.63226906  0.94534113  0.45290514    -0.83100
O1143       O  0.63448794  0.55957566  0.45986312    -0.82500
C1144       C  0.54331816  0.60692783  0.36988073     0.96800
O1145       O  0.54765433  0.62424883  0.39767697    -0.71600
O1146       O  0.54798794  0.56955131  0.43967970    -0.75200
Al1147     Al  0.57547813  0.60849154  0.43411986     1.49000
C1148       C  0.55287303  0.53615882  0.44833222     0.92100
O1149       O  0.60317747  0.51089327  0.38207661    -0.81500
O1150       O  0.64834940  0.60705665  0.37614819    -0.75000
Al1151     Al  0.61730408  0.53923615  0.42035836     1.90100
O1152       O  0.61617316  0.55216881  0.34410686    -0.74100
O1153       O  0.60051883  0.65236556  0.37606174    -0.73900
O1154       O  0.56560073  0.59243604  0.35407163    -0.79600
O1155       O  0.60067789  0.65232203  0.43116310    -0.77800
O1156       O  0.59999197  0.58204706  0.40712967    -1.13900
O1157       O  0.59633052  0.59526180  0.47642986    -0.73100
C1158       C  0.62012822  0.57552527  0.48320719     0.97600
C1159       C  0.61041992  0.51859269  0.35213247     0.94000
Al1160     Al  0.60705196  0.59957842  0.36588031     1.55600
O1161       O  0.57968508  0.52129710  0.44426728    -0.77800
C1162       C  0.60289466  0.67016154  0.40364849     0.98200
C1163       C  0.66738755  0.58256776  0.38652109     0.93000
O1164       O  0.65770566  0.55181355  0.39966102    -0.83100
O1165       O  0.88307519  0.94764350  0.25272899    -0.82500
C1166       C  0.79365794  0.89655396  0.34151732     0.96800
O1167       O  0.79880076  0.88032263  0.31337696    -0.71600
O1168       O  0.79738260  0.93505565  0.27144526    -0.75200
Al1169     Al  0.82594633  0.89716959  0.27727585     1.49000
C1170       C  0.80149824  0.96869238  0.26349751     0.92100
O1171       O  0.85092011  0.99585543  0.32975959    -0.81500
O1172       O  0.89837103  0.90134031  0.33656525    -0.75000
Al1173     Al  0.86556669  0.96778648  0.29171805     1.90100
O1174       O  0.86504640  0.95497759  0.36794505    -0.74100
O1175       O  0.85228293  0.85457462  0.33585931    -0.73900
O1176       O  0.81535274  0.91278697  0.35736012    -0.79600
O1177       O  0.85273988  0.85429921  0.28077960    -0.77800
O1178       O  0.84951089  0.92454771  0.30476856    -1.13900
O1179       O  0.84594434  0.91151426  0.23477320    -0.73100
C1180       C  0.86880737  0.93267958  0.22857784     0.97600
C1181       C  0.85865464  0.98840002  0.35976431     0.94000
Al1182     Al  0.85710800  0.90736018  0.34619280     1.55600
O1183       O  0.82786915  0.98432106  0.26759293    -0.77800
C1184       C  0.85552423  0.83671075  0.30848134     0.98200
C1185       C  0.91628156  0.92566628  0.32461396     0.93000
O1186       O  0.90590704  0.95661017  0.31241562    -0.83100
O1187       O  0.90751764  0.55480135  0.31865684    -0.82500
C1188       C  0.79402472  0.61310094  0.34777733     0.96800
O1189       O  0.81662954  0.59880195  0.36369591    -0.71600
O1190       O  0.86684655  0.55772160  0.37408755    -0.75200
Al1191     Al  0.85813189  0.60462385  0.35099363     1.49000
C1192       C  0.86082776  0.52399502  0.36661690     0.92100
O1193       O  0.82975539  0.52377315  0.27467828    -0.81500
O1194       O  0.84368612  0.59389279  0.24059932    -0.75000
Al1195     Al  0.86727441  0.54240655  0.29820227     1.90100
O1196       O  0.79683509  0.57054909  0.28089462    -0.74100
O1197       O  0.85021097  0.65342265  0.28291018    -0.73900
O1198       O  0.79819073  0.62860255  0.31913504    -0.79600
O1199       O  0.85237730  0.65694537  0.33798018    -0.77800
O1200       O  0.85005047  0.58533382  0.31053464    -1.13900
O1201       O  0.89944951  0.61095694  0.34052811    -0.73100
C1202       C  0.91774799  0.58588464  0.33043551     0.97600
C1203       C  0.80232011  0.53730885  0.27243411     0.94000
Al1204     Al  0.82452088  0.60999826  0.28298491     1.55600
O1205       O  0.85337183  0.51545373  0.33682210    -0.77800
C1206       C  0.85429400  0.67280847  0.30926996     0.98200
C1207       C  0.86832558  0.57559121  0.23444621     0.93000
O1208       O  0.88405113  0.56253393  0.25849580    -0.83100
O1209       O  0.84483539  0.45637969  0.06819869    -0.82500
C1210       C  0.95866739  0.39999878  0.09543745     0.96800
O1211       O  0.93638112  0.41333827  0.11193464    -0.71600
O1212       O  0.88598476  0.45343005  0.12319135    -0.75200
Al1213     Al  0.89492512  0.40668502  0.10012247     1.49000
C1214       C  0.89203964  0.48721977  0.11615179     0.92100
O1215       O  0.92223718  0.48741327  0.02393844    -0.81500
O1216       O  0.90590797  0.41376831  0.48969903    -0.75000
Al1217     Al  0.88491032  0.46916596  0.04750625     1.90100
O1218       O  0.95370860  0.43880676  0.02695505    -0.74100
O1219       O  0.90017995  0.35651176  0.03348120    -0.73900
O1220       O  0.95357969  0.38293282  0.06756770    -0.79600
O1221       O  0.90105454  0.35397691  0.08844713    -0.77800
O1222       O  0.90184728  0.42568967  0.05935633    -1.13900
O1223       O  0.85385478  0.39995300  0.08960032    -0.73100
C1224       C  0.83506734  0.42525061  0.08042911     0.97600
C1225       C  0.94889868  0.47253797  0.01935049     0.94000
Al1226     Al  0.92590070  0.39998620  0.03159405     1.55600
O1227       O  0.89979971  0.49576509  0.08655543    -0.77800
C1228       C  0.89798403  0.33739958  0.06023268     0.98200
C1229       C  0.88178797  0.43297802  0.48312392     0.93000
O1230       O  0.86688007  0.44777793  0.50668325    -0.83100
O1231       O  0.86693570  0.06135127  0.00168937    -0.82500
C1232       C  0.95888512  0.10681681  0.09059776     0.96800
O1233       O  0.95433920  0.12481628  0.06304353    -0.71600
O1234       O  0.95244877  0.07266848  0.01858400    -0.75200
Al1235     Al  0.92523811  0.11147511  0.02689922     1.49000
C1236       C  0.94775922  0.03905274  0.01074926     0.92100
O1237       O  0.89889561  0.01295241  0.07956444    -0.81500
O1238       O  0.85359419  0.10949519  0.08592468    -0.75000
Al1239     Al  0.88450923  0.04146008  0.04119183     1.90100
O1240       O  0.88571277  0.05426186  0.11732362    -0.74100
O1241       O  0.90200211  0.15409170  0.08678757    -0.73900
O1242       O  0.93669916  0.09287776  0.10688824    -0.79600
O1243       O  0.90025750  0.15573565  0.03194641    -0.77800
O1244       O  0.90160774  0.08431531  0.05416076    -1.13900
O1245       O  0.90216557  0.09710239  0.48493129    -0.73100
C1246       C  0.87852330  0.07734011  0.47815287     0.97600
C1247       C  0.89182370  0.02078162  0.10955282     0.94000
Al1248     Al  0.89509465  0.10128616  0.09579108     1.55600
O1249       O  0.92166301  0.02361708  0.01686198    -0.77800
C1250       C  0.89855389  0.17280420  0.05985067     0.98200
C1251       C  0.83477685  0.08498620  0.07526153     0.93000
O1252       O  0.84461881  0.05428502  0.06215882    -0.83100
O1253       O  0.61882987  0.44678109  0.21017111    -0.82500
C1254       C  0.70947350  0.39721522  0.12157540     0.96800
O1255       O  0.70540606  0.38162111  0.15018878    -0.71600
O1256       O  0.70546758  0.43754303  0.19051927    -0.75200
Al1257     Al  0.67816977  0.39825880  0.18610421     1.49000
C1258       C  0.70025777  0.47088689  0.19863998     0.92100
O1259       O  0.65023812  0.49441072  0.13243314    -0.81500
O1260       O  0.60453080  0.39839434  0.12775653    -0.75000
Al1261     Al  0.63591386  0.46687638  0.17075745     1.90100
O1262       O  0.63703020  0.45247946  0.09484923    -0.74100
O1263       O  0.65186024  0.35285918  0.12899441    -0.73900
O1264       O  0.68701574  0.41171150  0.10561435    -0.79600
O1265       O  0.65328357  0.35420715  0.18423652    -0.77800
O1266       O  0.65322245  0.42381907  0.15845065    -1.13900
O1267       O  0.65766303  0.41242680  0.22808700    -0.73100
C1268       C  0.63339684  0.43146272  0.23410245     0.97600
C1269       C  0.64306100  0.48613386  0.10246394     0.94000
Al1270     Al  0.64573346  0.40534175  0.11758311     1.55600
O1271       O  0.67315956  0.48510916  0.19519201    -0.77800
C1272       C  0.65010017  0.33596097  0.15707711     0.98200
C1273       C  0.58606407  0.42436589  0.13536053     0.93000
O1274       O  0.59573986  0.45480544  0.14903163    -0.90300
O1275       O  0.59513224  0.05500625  0.14372067    -0.82500
C1276       C  0.70824492  0.11356772  0.11399120     0.96800
O1277       O  0.68538569  0.09974997  0.09826768    -0.71600
O1278       O  0.63509753  0.05868660  0.08847169    -0.75200
Al1279     Al  0.64389030  0.10555319  0.11180752     1.49000
C1280       C  0.64088001  0.02471803  0.09587523     0.92100
O1281       O  0.67255772  0.02316562  0.18743964    -0.81500
O1282       O  0.66058438  0.09171306  0.22160388    -0.75000
Al1283     Al  0.63519053  0.04265048  0.16409850     1.90100
O1284       O  0.70611668  0.06847650  0.17929063    -0.74100
O1285       O  0.65427335  0.15274362  0.18074976    -0.73900
O1286       O  0.70469924  0.12811828  0.14301598    -0.79600
O1287       O  0.65000150  0.15768321  0.12562901    -0.77800
O1288       O  0.65259489  0.08541413  0.15175402    -1.13900
O1289       O  0.60228301  0.11194762  0.12299550    -0.73100
C1290       C  0.58442774  0.08601904  0.13227745     0.97600
C1291       C  0.70026793  0.03566553  0.18859772     0.94000
Al1292     Al  0.67904594  0.10870031  0.17910025     1.55600
O1293       O  0.64859348  0.01577511  0.12553698    -0.77800
C1294       C  0.65044409  0.17285761  0.15470591     0.98200
C1295       C  0.63548643  0.07450293  0.22768616     0.93000
O1296       O  0.61888446  0.06355050  0.20357774    -0.83100
C1297       C  0.62897586  0.23449822  0.13545197    -0.21000
C1298       C  0.64846470  0.21449508  0.15778829    -0.07600
C1299       C  0.66748970  0.23485642  0.18074961     0.13300
C1300       C  0.66628658  0.27436573  0.18083670    -0.21100
C1301       C  0.64734663  0.29433736  0.15798871    -0.07600
C1302       C  0.62820696  0.27408889  0.13519083     0.13300
C1303       C  0.60659608  0.29396906  0.11086521    -0.24400
H1304       H  0.61455169  0.21902934  0.11775081     0.14500
H1305       H  0.68134357  0.28987041  0.19789589     0.14600
C1306       C  0.69058598  0.21546153  0.20381799    -0.24400
H1307       H  0.59189936  0.27381769  0.09652994     0.04800
H1308       H  0.62011143  0.31030101  0.09220251     0.08000
H1309       H  0.59100543  0.31316481  0.12497773     0.08000
H1310       H  0.70670164  0.19800360  0.18864642     0.08000
H1311       H  0.67830184  0.19750703  0.22230667     0.08000
H1312       H  0.70477201  0.23591734  0.21841987     0.04800
C1313       C  0.50553063  0.13117495  0.11777907    -0.21000
C1314       C  0.48912376  0.10062361  0.10460180    -0.07600
C1315       C  0.50304577  0.06447549  0.10404923     0.13300
C1316       C  0.53375380  0.06032121  0.11508043    -0.21100
C1317       C  0.55084864  0.09119362  0.12665859    -0.07600
C1318       C  0.53624930  0.12691549  0.12917288     0.13300
C1319       C  0.55256702  0.16046450  0.14434497    -0.24400
H1320       H  0.49429502  0.15848384  0.11893655     0.14500
H1321       H  0.54483780  0.03296072  0.11318074     0.14600
C1322       C  0.98961590  0.03062864  0.08758632    -0.24400
H1323       H  0.53659558  0.18482856  0.14717226     0.04800
H1324       H  0.57179107  0.16968145  0.12789227     0.08000
H1325       H  0.56180552  0.15312027  0.16982596     0.08000
H1326       H  0.00293636  0.02149808  0.06524185     0.08000
H1327       H  0.96513201  0.03527032  0.07995439     0.08000
H1328       H  0.99066432  0.00704411  0.10589623     0.04800
C1329       C  0.74698923  0.07536685  0.08390732    -0.21000
C1330       C  0.73958501  0.10955319  0.09966279    -0.07600
C1331       C  0.76282015  0.13685954  0.10399764     0.13300
C1332       C  0.79307657  0.12851432  0.09375444    -0.21100
C1333       C  0.80118704  0.09300385  0.08029063    -0.07600
C1334       C  0.77740793  0.06644952  0.07437413     0.13300
C1335       C  0.78367854  0.02824443  0.05937515    -0.24400
H1336       H  0.72923466  0.05434890  0.08135158     0.14500
H1337       H  0.81074224  0.14972573  0.09760730     0.14600
C1338       C  0.75601361  0.17474879  0.11942633    -0.24400
H1339       H  0.76211532  0.01153845  0.05640619     0.04800
H1340       H  0.79961879  0.01205120  0.07617140     0.08000
H1341       H  0.79401970  0.03143591  0.03392966     0.08000
H1342       H  0.74958102  0.17144492  0.14635428     0.08000
H1343       H  0.73675029  0.18867123  0.10533508     0.08000
H1344       H  0.77650474  0.19358500  0.11860583     0.04800
C1345       C  0.74696097  0.43268623  0.08718142    -0.21000
C1346       C  0.74079267  0.40100620  0.10745659    -0.07600
C1347       C  0.76493902  0.37569495  0.11536170     0.13300
C1348       C  0.79492268  0.38420933  0.10497639    -0.21100
C1349       C  0.80179851  0.41742255  0.08683326    -0.07600
C1350       C  0.77711834  0.44121648  0.07663942     0.13300
C1351       C  0.78195360  0.47527484  0.05464376    -0.24400
H1352       H  0.72822552  0.45183404  0.08061192     0.14500
H1353       H  0.81326923  0.36479860  0.11212137     0.14600
C1354       C  0.75949264  0.33948413  0.13438707    -0.24400
H1355       H  0.75965340  0.48918948  0.04776524     0.04800
H1356       H  0.79348514  0.46677738  0.03088465     0.08000
H1357       H  0.79635157  0.49627366  0.06807658     0.08000
H1358       H  0.74092354  0.32304358  0.12162417     0.08000
H1359       H  0.75285436  0.34551663  0.16086258     0.08000
H1360       H  0.78066518  0.32159763  0.13543813     0.04800
C1361       C  0.51421127  0.39318435  0.08779220    -0.21000
C1362       C  0.49047501  0.40299426  0.11011276    -0.07600
C1363       C  0.49846526  0.42077815  0.14125901     0.13300
C1364       C  0.52983058  0.42846090  0.14863336    -0.21100
C1365       C  0.55324734  0.41850246  0.12604755    -0.07600
C1366       C  0.54524900  0.40060776  0.09515149     0.13300
C1367       C  0.56907650  0.38993123  0.06900514    -0.24400
H1368       H  0.50852664  0.38006782  0.06381331     0.14500
H1369       H  0.53619022  0.44168651  0.17238010     0.14600
C1370       C  0.97441737  0.43848487  0.16280255    -0.24400
H1371       H  0.55814631  0.38074308  0.04486325     0.04800
H1372       H  0.58348242  0.36611899  0.07826392     0.08000
H1373       H  0.58409486  0.41439307  0.06337194     0.08000
H1374       H  0.96057650  0.41411550  0.17155136     0.08000
H1375       H  0.95904422  0.45984159  0.15082014     0.08000
H1376       H  0.98503923  0.45177582  0.18550340     0.04800
C1377       C  0.89359725  0.27555002  0.08995925    -0.21000
C1378       C  0.89397917  0.29538910  0.05914332    -0.07600
C1379       C  0.89229487  0.27430149  0.02866840     0.13300
C1380       C  0.89264687  0.23466299  0.03001620    -0.21100
C1381       C  0.89448599  0.21484482  0.06080899    -0.07600
C1382       C  0.89381407  0.23595484  0.09133329     0.13300
C1383       C  0.89372775  0.21753610  0.12573825    -0.24400
H1384       H  0.89402292  0.29115037  0.11347221     0.14500
H1385       H  0.89230304  0.21902644  0.00652208     0.14600
C1386       C  0.91120526  0.29118344  0.49467970    -0.24400
H1387       H  0.89193606  0.23848392  0.14644949     0.04800
H1388       H  0.91564631  0.20164566  0.12990498     0.08000
H1389       H  0.87349703  0.19842432  0.12778280     0.08000
H1390       H  0.93251754  0.30812284  0.49868771     0.08000
H1391       H  0.86997277  0.31182553  0.99310657     0.08000
H1392       H  0.91633123  0.27021656  0.47467773     0.04800
C1393       C  0.83953766  0.48143480  0.41087041    -0.21000
C1394       C  0.86502268  0.49416320  0.39242300    -0.07600
C1395       C  0.89480713  0.47955526  0.39993836     0.13300
C1396       C  0.89880417  0.45443159  0.42707779    -0.21100
C1397       C  0.87389858  0.44468700  0.44793927    -0.07600
C1398       C  0.84355393  0.45672032  0.43845343     0.13300
C1399       C  0.81500473  0.44461459  0.45719798    -0.24400
H1400       H  0.81652809  0.49188335  0.40454228     0.14500
H1401       H  0.92209983  0.44565188  0.43412615     0.14600
C1402       C  0.92275801  0.49222574  0.38055898    -0.24400
H1403       H  0.79834784  0.43155606  0.43917124     0.04800
H1404       H  0.80381871  0.46955674  0.46881326     0.08000
H1405       H  0.82011521  0.42346064  0.47712408     0.08000
H1406       H  0.92570221  0.52300792  0.38381235     0.08000
H1407       H  0.91956325  0.48558433  0.35333240     0.08000
H1408       H  0.94437165  0.47820449  0.38958636     0.04800
C1409       C  0.85165719  0.55210120  0.17824278    -0.21000
C1410       C  0.87624000  0.56304482  0.19952527    -0.07600
C1411       C  0.90704690  0.55365552  0.18989284     0.13300
C1412       C  0.91201573  0.53078708  0.16121892    -0.21100
C1413       C  0.88702327  0.51684712  0.14213224    -0.07600
C1414       C  0.85669694  0.52908670  0.14991628     0.13300
C1415       C  0.82946740  0.51721469  0.12854433    -0.24400
H1416       H  0.82805832  0.55914837  0.18518415     0.14500
H1417       H  0.93537675  0.52237940  0.15463311     0.14600
C1418       C  0.93478850  0.56732717  0.20981810    -0.24400
H1419       H  0.80727983  0.52908883  0.13790108     0.04800
H1420       H  0.82758592  0.48613662  0.12861520     0.08000
H1421       H  0.83292225  0.52728954  0.10229174     0.08000
H1422       H  0.93569608  0.55399763  0.23516129     0.08000
H1423       H  0.93356981  0.59837904  0.21256924     0.08000
H1424       H  0.95687386  0.56029346  0.19697527     0.04800
C1425       C  0.72061303  0.50899672  0.24611891    -0.21000
C1426       C  0.72633816  0.49067012  0.21549833    -0.07600
C1427       C  0.75760608  0.48477514  0.20541602     0.13300
C1428       C  0.78203844  0.49816467  0.22576505    -0.21100
C1429       C  0.77630230  0.51687724  0.25615567    -0.07600
C1430       C  0.74509503  0.52196460  0.26668005     0.13300
C1431       C  0.73730824  0.54007514  0.30004297    -0.24400
H1432       H  0.69689033  0.51190471  0.25462796     0.14500
H1433       H  0.80577156  0.49508322  0.21732718     0.14600
C1434       C  0.76562135  0.46490836  0.17292057    -0.24400
H1435       H  0.71214624  0.53826324  0.30557500     0.04800
H1436       H  0.74328431  0.57035389  0.29966911     0.08000
H1437       H  0.75014265  0.52567860  0.32083661     0.08000
H1438       H  0.75367154  0.47882651  0.15127184     0.08000
H1439       H  0.75898379  0.43486307  0.17415068     0.08000
H1440       H  0.79092308  0.46531265  0.16818403     0.04800
C1441       C  0.78158029  0.00784919  0.21662320    -0.21000
C1442       C  0.77527577  0.98746301  0.24600872    -0.07600
C1443       C  0.74391984  0.97942748  0.25425536     0.13300
C1444       C  0.71985872  0.99359645  0.23373680    -0.21100
C1445       C  0.72614704  0.01471947  0.20475606    -0.07600
C1446       C  0.75755119  0.02109121  0.19559729     0.13300
C1447       C  0.76614289  0.04064807  0.16311435    -0.24400
H1448       H  0.80550974  0.01218817  0.20937098     0.14500
H1449       H  0.69594497  0.98913201  0.24097832     0.14600
C1450       C  0.73536952  0.95646120  0.28492228    -0.24400
H1451       H  0.79143634  0.03878470  0.15815479     0.04800
H1452       H  0.76018644  0.07097324  0.16422026     0.08000
H1453       H  0.75383630  0.02713594  0.14158594     0.08000
H1454       H  0.74592119  0.96895325  0.30800193     0.08000
H1455       H  0.74315229  0.92689811  0.28206285     0.08000
H1456       H  0.70989694  0.95530777  0.28836241     0.04800
C1457       C  0.85832550  0.77517127  0.27805828    -0.21000
C1458       C  0.86001555  0.79484177  0.30887263    -0.07600
C1459       C  0.86371996  0.77366955  0.33919936     0.13300
C1460       C  0.86368044  0.73417133  0.33781562    -0.21100
C1461       C  0.85928751  0.71450799  0.30734226    -0.07600
C1462       C  0.85768203  0.73556484  0.27678995     0.13300
C1463       C  0.85444399  0.71706731  0.24264906    -0.24400
H1464       H  0.85611357  0.79090076  0.25465863     0.14500
H1465       H  0.86581801  0.71850343  0.36125186     0.14600
C1466       C  0.86684421  0.79180753  0.37355762    -0.24400
H1467       H  0.85437918  0.73795650  0.22173273     0.04800
H1468       H  0.83219768  0.70149901  0.24107651     0.08000
H1469       H  0.87423516  0.69759315  0.23847529     0.08000
H1470       H  0.84513177  0.80697912  0.37994341     0.08000
H1471       H  0.88676193  0.81146719  0.37390484     0.08000
H1472       H  0.87100659  0.77074520  0.39388402     0.04800
C1473       C  0.90539099  0.96576263  0.19071541    -0.21000
C1474       C  0.87760272  0.94516336  0.19360096    -0.07600
C1475       C  0.85663081  0.94559239  0.16564771     0.13300
C1476       C  0.86335810  0.96787642  0.13692549    -0.21100
C1477       C  0.88960811  0.99121775  0.13606648    -0.07600
C1478       C  0.91080161  0.98996195  0.16336163     0.13300
C1479       C  0.93846667  0.01559483  0.16456302    -0.24400
H1480       H  0.92188218  0.96574207  0.21157439     0.14500
H1481       H  0.84679172  0.96939545  0.11616654     0.14600
C1482       C  0.82621991  0.92491208  0.16661464    -0.24400
H1483       H  0.93077240  0.04541274  0.16461686     0.04800
H1484       H  0.95279698  0.01037979  0.14215947     0.08000
H1485       H  0.95308487  0.01078479  0.18744315     0.08000
H1486       H  0.81153278  0.93629390  0.18714347     0.08000
H1487       H  0.83052686  0.89446265  0.17087795     0.08000
H1488       H  0.81299819  0.92802166  0.14252888     0.04800
C1489       C  0.83690439  0.03194756  0.40332587    -0.21000
C1490       C  0.86257975  0.01878567  0.38524567    -0.07600
C1491       C  0.89245327  0.03199147  0.39412608     0.13300
C1492       C  0.89621642  0.05615943  0.42199852    -0.21100
C1493       C  0.87106860  0.06585380  0.44265134    -0.07600
C1494       C  0.84076716  0.05503090  0.43212741     0.13300
C1495       C  0.81244809  0.06728926  0.45134568    -0.24400
H1496       H  0.81394676  0.02230306  0.39613475     0.14500
H1497       H  0.91948010  0.06403722  0.42980718     0.14600
C1498       C  0.92071976  0.01873334  0.37543898    -0.24400
H1499       H  0.79071677  0.05875598  0.43817349     0.04800
H1500       H  0.81225674  0.09840367  0.45374815     0.08000
H1501       H  0.81219919  0.05433702  0.47683679     0.08000
H1502       H  0.91845492  0.02619445  0.34826039     0.08000
H1503       H  0.92303196  0.98776870  0.37812101     0.08000
H1504       H  0.94233715  0.03167753  0.38547846     0.04800
C1505       C  0.49604384  0.53208749  0.45918825    -0.21000
C1506       C  0.52612751  0.51713069  0.46513206    -0.07600
C1507       C  0.52982873  0.48990326  0.49080360     0.13300
C1508       C  0.00513334  0.47499013  0.50893501    -0.21100
C1509       C  0.97514906  0.49068501  0.50411133    -0.07600
C1510       C  0.97136312  0.51965282  0.48002564     0.13300
C1511       C  0.94031595  0.53798534  0.47333812    -0.24400
H1512       H  0.49281602  0.55340715  0.43983149     0.14500
H1513       H  0.00845011  0.45260400  0.52728182     0.14600
C1514       C  0.56108781  0.47320578  0.49921177    -0.24400
H1515       H  0.44046765  0.56011403  0.45001162     0.04800
H1516       H  0.93180538  0.55144867  0.49682618     0.08000
H1517       H  0.92331144  0.51598454  0.96292301     0.08000
H1518       H  0.57749138  0.49568489  0.50669812     0.08000
H1519       H  0.57024407  0.45797561  0.47692905     0.08000
H1520       H  0.06047210  0.44609869  0.51614422     0.04800
C1521       C  0.99422986  0.63377598  0.35100441    -0.21000
C1522       C  0.51193401  0.60202705  0.35634725    -0.07600
C1523       C  0.50024056  0.56574900  0.34937451     0.13300
C1524       C  0.97080120  0.56141492  0.34029010    -0.21100
C1525       C  0.95130679  0.59255127  0.33545020    -0.07600
C1526       C  0.96371182  0.62943522  0.33917016     0.13300
C1527       C  0.94543028  0.66446674  0.33025088    -0.24400
H1528       H  0.00369079  0.66168162  0.35486587     0.14500
H1529       H  0.96182587  0.53334913  0.33639987     0.14600
C1530       C  0.51921868  0.53082612  0.35603286    -0.24400
H1531       H  0.96029278  0.68993725  0.33058647     0.04800
H1532       H  0.92669247  0.66931583  0.34878997     0.08000
H1533       H  0.93540475  0.66179439  0.30439601     0.08000
H1534       H  0.52612484  0.52958864  0.38306543     0.08000
H1535       H  0.54023608  0.53135922  0.34029716     0.08000
H1536       H  0.50619276  0.50476022  0.34991975     0.04800
C1537       C  0.70787872  0.62471644  0.36340140    -0.21000
C1538       C  0.70090257  0.59105147  0.38085835    -0.07600
C1539       C  0.72577267  0.56752974  0.39118709     0.13300
C1540       C  0.75613718  0.57676402  0.38145339    -0.21100
C1541       C  0.76243707  0.60884583  0.36170310    -0.07600
C1542       C  0.73805822  0.63388394  0.35374971     0.13300
C1543       C  0.74349084  0.67054813  0.33546342    -0.24400
H1544       H  0.68946072  0.64400577  0.35625747     0.14500
H1545       H  0.77495068  0.55776926  0.38810342     0.14600
C1546       C  0.72086965  0.53284527  0.41233551    -0.24400
H1547       H  0.75075242  0.66517417  0.30907696     0.04800
H1548       H  0.72213831  0.68810604  0.33419595     0.08000
H1549       H  0.76162323  0.68700078  0.34894765     0.08000
H1550       H  0.70667842  0.51213053  0.39823247     0.08000
H1551       H  0.70904661  0.54062583  0.43611320     0.08000
H1552       H  0.74316709  0.51892122  0.41920850     0.04800
C1553       C  0.66381396  0.52176918  0.05337766    -0.21000
C1554       C  0.63975153  0.51586676  0.07625582    -0.07600
C1555       C  0.61163567  0.53595919  0.07186386     0.13300
C1556       C  0.60718840  0.55874515  0.04296505    -0.21100
C1557       C  0.63020933  0.56182262  0.01812452    -0.07600
C1558       C  0.65973522  0.54527224  0.02498336     0.13300
C1559       C  0.68698056  0.56111170  0.50749898    -0.24400
H1560       H  0.68575303  0.50724933  0.05723257     0.14500
H1561       H  0.58457986  0.57126289  0.03830735     0.14600
C1562       C  0.58558860  0.53149561  0.09664413    -0.24400
H1563       H  0.70475313  0.57314613  0.52482614     0.04800
H1564       H  0.68227004  0.58244913  0.48762321     0.08000
H1565       H  0.69663075  0.53534301  0.49568939     0.08000
H1566       H  0.59364420  0.53986559  0.12229438     0.08000
H1567       H  0.57793502  0.50172537  0.09715980     0.08000
H1568       H  0.56524644  0.54925289  0.08972796     0.04800
C1569       C  0.64790304  0.44722869  0.29345591    -0.21000
C1570       C  0.62422370  0.44165059  0.26928303    -0.07600
C1571       C  0.59414749  0.45595226  0.27635612     0.13300
C1572       C  0.58983053  0.47984754  0.30425808    -0.21100
C1573       C  0.61426382  0.48832694  0.32652651    -0.07600
C1574       C  0.64320585  0.47028530  0.32195937     0.13300
C1575       C  0.66969088  0.47713121  0.34616713    -0.24400
H1576       H  0.67096615  0.43636266  0.28857512     0.14500
H1577       H  0.56732256  0.49256299  0.30797746     0.14600
C1578       C  0.56617371  0.44724828  0.25459150    -0.24400
H1579       H  0.69076402  0.46097464  0.33913008     0.04800
H1580       H  0.66287770  0.46853292  0.37206045     0.08000
H1581       H  0.67563132  0.50745784  0.34611535     0.08000
H1582       H  0.57084288  0.42509134  0.23558851     0.08000
H1583       H  0.55810031  0.47319866  0.24150256     0.08000
H1584       H  0.54718731  0.43659649  0.27077216     0.04800
C1585       C  0.70796192  0.88043880  0.35650911    -0.21000
C1586       C  0.70012104  0.91263139  0.37557174    -0.07600
C1587       C  0.72421332  0.93644282  0.38702229     0.13300
C1588       C  0.75468399  0.92931884  0.37651462    -0.21100
C1589       C  0.76191717  0.89879418  0.35528187    -0.07600
C1590       C  0.73838251  0.87311466  0.34637703     0.13300
C1591       C  0.74491470  0.83775731  0.32653647    -0.24400
H1592       H  0.69003307  0.86106821  0.34845673     0.14500
H1593       H  0.77283993  0.94865875  0.38406280     0.14600
C1594       C  0.71845102  0.96900373  0.41054215    -0.24400
H1595       H  0.72418674  0.81935810  0.32475178     0.04800
H1596       H  0.76372747  0.82137824  0.33915404     0.08000
H1597       H  0.75169867  0.84490742  0.30032342     0.08000
H1598       H  0.70678424  0.95885518  0.43374019     0.08000
H1599       H  0.70388632  0.99061424  0.39790935     0.08000
H1600       H  0.74040813  0.98287538  0.41841753     0.04800
C1601       C  0.99219935  0.87454835  0.33927236    -0.21000
C1602       C  0.01128202  0.90479391  0.34741759    -0.07600
C1603       C  0.00033541  0.94216707  0.34344153     0.13300
C1604       C  0.96974476  0.94819054  0.33290769    -0.21100
C1605       C  0.94970621  0.91794676  0.32752626    -0.07600
C1606       C  0.96148516  0.88052257  0.32901590     0.13300
C1607       C  0.94214850  0.84659515  0.31989391    -0.24400
H1608       H  0.49918228  0.84483732  0.35366544     0.14500
H1609       H  0.96104623  0.97674472  0.33101701     0.14600
C1610       C  0.01931407  0.97647559  0.35198963    -0.24400
H1611       H  0.95647059  0.82061807  0.31844920     0.04800
H1612       H  0.93087416  0.85088290  0.29482249     0.08000
H1613       H  0.92434806  0.84151297  0.33936144     0.08000
H1614       H  0.54129101  0.96807664  0.32184417     0.08000
H1615       H  0.04295113  0.96983051  0.36118978     0.08000
H1616       H  0.00752935  0.99280179  0.37208804     0.04800
C1617       C  0.59633152  0.73179857  0.43286804    -0.21000
C1618       C  0.60561361  0.71215006  0.40379857    -0.07600
C1619       C  0.61545408  0.73322284  0.37534840     0.13300
C1620       C  0.61469251  0.77279572  0.37650110    -0.21100
C1621       C  0.60413547  0.79246642  0.40505088    -0.07600
C1622       C  0.59521590  0.77137390  0.43389134     0.13300
C1623       C  0.58329301  0.78987064  0.46554484    -0.24400
H1624       H  0.58873582  0.71602665  0.45474617     0.14500
H1625       H  0.62191597  0.78854906  0.35445239     0.14600
C1626       C  0.62695750  0.71459496  0.34356292    -0.24400
H1627       H  0.57672070  0.76891053  0.48504363     0.04800
H1628       H  0.56230578  0.80688488  0.45951133     0.08000
H1629       H  0.60156637  0.80801804  0.47678388     0.08000
H1630       H  0.60780049  0.69904351  0.33098728     0.08000
H1631       H  0.64633085  0.69506029  0.34981860     0.08000
H1632       H  0.63570124  0.73544177  0.32502913     0.04800
C1633       C  0.59205190  0.02815799  0.29993616    -0.21000
C1634       C  0.61690244  0.01185287  0.31776791    -0.07600
C1635       C  0.64745920  0.02274156  0.30974815     0.13300
C1636       C  0.65266254  0.04696476  0.28226108    -0.21100
C1637       C  0.62799313  0.06034527  0.26211477    -0.07600
C1638       C  0.59713283  0.05190268  0.27195572     0.13300
C1639       C  0.56938778  0.06733207  0.25290283    -0.24400
H1640       H  0.56858946  0.02111033  0.30695513     0.14500
H1641       H  0.67631319  0.05324783  0.27507473     0.14600
C1642       C  0.67464190  0.00864359  0.33024265    -0.24400
H1643       H  0.54736177  0.06086926  0.26604614     0.04800
H1644       H  0.56770197  0.05471896  0.22733477     0.08000
H1645       H  0.57128179  0.09837716  0.25073529     0.08000
H1646       H  0.67549309  0.97749569  0.32949273     0.08000
H1647       H  0.67197017  0.01806958  0.35676711     0.08000
H1648       H  0.69702206  0.01960924  0.32069072     0.04800
C1649       C  0.65365466  0.96099595  0.02041831    -0.21000
C1650       C  0.62378032  0.94584351  0.01540518    -0.07600
C1651       C  0.60097197  0.95254704  0.04041456     0.13300
C1652       C  0.60783598  0.97696340  0.06752754    -0.21100
C1653       C  0.63663758  0.99505373  0.07007867    -0.07600
C1654       C  0.66009633  0.98591254  0.04701855     0.13300
C1655       C  0.69149641  0.00381905  0.04956819    -0.24400
H1656       H  0.67148780  0.95570280  0.00185224     0.14500
H1657       H  0.59007502  0.98359807  0.08583260     0.14600
C1658       C  0.56881948  0.93621721  0.03782986    -0.24400
H1659       H  0.70737876  0.99363820  0.02957896     0.04800
H1660       H  0.70206489  0.99703050  0.07455902     0.08000
H1661       H  0.68892715  0.03474209  0.04671587     0.08000
H1662       H  0.57029725  0.90505824  0.03669992     0.08000
H1663       H  0.55673463  0.94708973  0.01493605     0.08000
H1664       H  0.55444643  0.94383436  0.05998009     0.04800
C1665       C  0.99149174  0.97826545  0.44887949    -0.21000
C1666       C  0.52515784  0.99333412  0.45339615    -0.07600
C1667       C  0.52962177  0.02100742  0.47852087     0.13300
C1668       C  0.50240607  0.03326946  0.99988075    -0.21100
C1669       C  0.97386264  0.02001194  0.99285918    -0.07600
C1670       C  0.96629142  0.98975258  0.46877400     0.13300
C1671       C  0.93505406  0.97182165  0.46303615    -0.24400
H1672       H  0.98760228  0.95642920  0.43021802     0.14500
H1673       H  0.50594027  0.05582158  0.01790241     0.14600
C1674       C  0.56133408  0.03630554  0.48697618    -0.24400
H1675       H  0.93560837  0.95077169  0.44231465     0.04800
H1676       H  0.91761575  0.99349876  0.45609136     0.08000
H1677       H  0.92765667  0.95721791  0.48642751     0.08000
H1678       H  0.57689446  0.01320607  0.49552494     0.08000
H1679       H  0.55844576  0.05896026  0.00923846     0.08000
H1680       H  0.56904291  0.05010851  0.96621001     0.04800
O1681       O  0.65567756  0.95247524  0.89694710    -0.82500
C1682       C  0.54294743  0.89696408  0.86619130     0.96800
O1683       O  0.56601530  0.90903452  0.85024546    -0.71600
O1684       O  0.61651222  0.94876779  0.84111906    -0.75200
Al1685     Al  0.60688013  0.90221198  0.86456134     1.49000
C1686       C  0.61001034  0.98269745  0.84754799     0.92100
O1687       O  0.57764141  0.98463432  0.93881522    -0.81500
O1688       O  0.59175634  0.91349688  0.97396827    -0.75000
Al1689     Al  0.61524925  0.96536758  0.91642438     1.90100
O1690       O  0.54508150  0.93770301  0.93347301    -0.74100
O1691       O  0.59750991  0.85372935  0.93219185    -0.73900
O1692       O  0.54615020  0.88044169  0.89459354    -0.79600
O1693       O  0.60003646  0.84988078  0.87728584    -0.77800
O1694       O  0.59817918  0.92222249  0.90439377    -1.13900
O1695       O  0.64771124  0.89525298  0.87735825    -0.73100
C1696       C  0.66603408  0.92125567  0.88563413     0.97600
C1697       C  0.55045626  0.97097827  0.94194564     0.94000
Al1698     Al  0.57245577  0.89793898  0.93147368     1.55600
O1699       O  0.60179348  0.99185826  0.87686156    -0.77800
C1700       C  0.60077735  0.83393750  0.90602639     0.98200
C1701       C  0.61569484  0.93281372  0.98054180     0.93000
O1702       O  0.63149656  0.94573909  0.95675567    -0.83100
O1703       O  0.63304448  0.55455468  0.95907267    -0.82500
C1704       C  0.54208131  0.60595378  0.87047473     0.96800
O1705       O  0.54586103  0.62186699  0.89914636    -0.71600
O1706       O  0.54769540  0.56718072  0.94102840    -0.75200
Al1707     Al  0.57461528  0.60640262  0.93521518     1.49000
C1708       C  0.55243709  0.53318218  0.94738683     0.92100
O1709       O  0.60115665  0.51125621  0.87886193    -0.81500
O1710       O  0.64658665  0.60789635  0.87781214    -0.75000
Al1711     Al  0.61582204  0.53720100  0.91841934     1.90100
O1712       O  0.61591844  0.55394143  0.84317444    -0.74100
O1713       O  0.59826996  0.65246138  0.87772501    -0.73900
O1714       O  0.56463320  0.59268928  0.85427839    -0.79600
O1715       O  0.59911529  0.65101775  0.93267295    -0.77800
O1716       O  0.59872879  0.58089160  0.90724026    -1.13900
O1717       O  0.59689676  0.59275468  0.97680496    -0.73100
C1718       C  0.62021702  0.57178372  0.98282568     0.97600
C1719       C  0.60961338  0.52009163  0.84958984     0.94000
Al1720     Al  0.60572058  0.60016733  0.86658151     1.55600
O1721       O  0.57874482  0.51811028  0.94152456    -0.77800
C1722       C  0.60102464  0.66957815  0.90555617     0.98200
C1723       C  0.66558074  0.58241356  0.88606551     0.93000
O1724       O  0.65603412  0.55096506  0.89799450    -0.83100
O1725       O  0.88259726  0.94676364  0.75541815    -0.82500
C1726       C  0.79253139  0.89823025  0.84442554     0.96800
O1727       O  0.79739835  0.88222256  0.81619066    -0.71600
O1728       O  0.79587101  0.93818690  0.77548322    -0.75200
Al1729     Al  0.82405435  0.89924617  0.78000939     1.49000
C1730       C  0.80085657  0.97146303  0.76678327     0.92100
O1731       O  0.85135679  0.99698248  0.83179898    -0.81500
O1732       O  0.89735032  0.90164958  0.83954678    -0.75000
Al1733     Al  0.86547213  0.96824480  0.79410586     1.90100
O1734       O  0.86402771  0.95603119  0.87062245    -0.74100
O1735       O  0.85091362  0.85576085  0.83787191    -0.73900
O1736       O  0.81438941  0.91417038  0.86015793    -0.79600
O1737       O  0.85005031  0.85530399  0.78263044    -0.77800
O1738       O  0.84855730  0.92564658  0.80744342    -1.13900
O1739       O  0.84362175  0.91401481  0.73711809    -0.73100
C1740       C  0.86734642  0.93383935  0.73100802     0.97600
C1741       C  0.85823787  0.98953091  0.86203689     0.94000
Al1742     Al  0.85604878  0.90831166  0.84882509     1.55600
O1743       O  0.82787903  0.98580817  0.76975672    -0.77800
C1744       C  0.85257738  0.83765025  0.81038780     0.98200
C1745       C  0.91571098  0.92561419  0.82792493     0.93000
O1746       O  0.90571377  0.95643039  0.81509909    -0.83100
O1747       O  0.90489282  0.55468038  0.81869647    -0.82500
C1748       C  0.79099814  0.61210191  0.84375201     0.96800
O1749       O  0.81321722  0.59789266  0.86033649    -0.71600
O1750       O  0.86346214  0.55770996  0.87294420    -0.75200
Al1751     Al  0.85463002  0.60419956  0.84931936     1.49000
C1752       C  0.85760166  0.52390651  0.86587378     0.92100
O1753       O  0.82740851  0.52303040  0.77323666    -0.81500
O1754       O  0.84433969  0.59501336  0.73857064    -0.75000
Al1755     Al  0.86477347  0.54164682  0.79733079     1.90100
O1756       O  0.79583461  0.57160160  0.77537206    -0.74100
O1757       O  0.84913235  0.65446318  0.78186954    -0.73900
O1758       O  0.79565738  0.62794825  0.81530193    -0.79600
O1759       O  0.84860574  0.65639765  0.83696954    -0.77800
O1760       O  0.84771291  0.58508707  0.80852015    -1.13900
O1761       O  0.89580021  0.61088336  0.84002431    -0.73100
C1762       C  0.91459358  0.58586367  0.83109463     0.97600
C1763       C  0.80059301  0.53774774  0.76866941     0.94000
Al1764     Al  0.82351612  0.61053925  0.77998443     1.55600
O1765       O  0.85001855  0.51520503  0.83615258    -0.77800
C1766       C  0.85146511  0.67319449  0.80887982     0.98200
C1767       C  0.86800454  0.57466847  0.73315939     0.93000
O1768       O  0.88238081  0.56021834  0.75756047    -0.83100
O1769       O  0.84364178  0.45407012  0.56685386    -0.82500
C1770       C  0.95745384  0.39705727  0.59648700     0.96800
O1771       O  0.93499509  0.41086300  0.61248354    -0.71600
O1772       O  0.88424926  0.45108251  0.62259648    -0.75200
Al1773     Al  0.89345294  0.40437022  0.59963159     1.49000
C1774       C  0.89031584  0.48487862  0.61552358     0.92100
O1775       O  0.92152189  0.48548647  0.52382848    -0.81500
O1776       O  0.90492300  0.41473418  0.98982405    -0.75000
Al1777     Al  0.88393842  0.46691691  0.54688349     1.90100
O1778       O  0.95356213  0.43766143  0.52880099    -0.74100
O1779       O  0.90031167  0.35524740  0.53246169    -0.73900
O1780       O  0.95270185  0.38075460  0.56822304    -0.79600
O1781       O  0.89983430  0.35177182  0.58746944    -0.77800
O1782       O  0.90102272  0.42368490  0.55916299    -1.13900
O1783       O  0.85230299  0.39765086  0.58832768    -0.73100
C1784       C  0.83362781  0.42288259  0.57863388     0.97600
C1785       C  0.94853040  0.47109860  0.52037195     0.94000
Al1786     Al  0.92587601  0.39857621  0.53187181     1.55600
O1787       O  0.89809990  0.49355975  0.58597754    -0.77800
C1788       C  0.89798103  0.33566919  0.55889367     0.98200
C1789       C  0.88120793  0.43483463  0.98360264     0.93000
O1790       O  0.86717636  0.45059528  0.00733573    -0.83100
O1791       O  0.86410494  0.06169005  0.50164192    -0.82500
C1792       C  0.95750593  0.10620283  0.59013535     0.96800
O1793       O  0.95272790  0.12407301  0.56263790    -0.71600
O1794       O  0.95046125  0.06997766  0.52040044    -0.75200
Al1795     Al  0.92377880  0.10946492  0.52686596     1.49000
C1796       C  0.94505694  0.03679256  0.51168835     0.92100
O1797       O  0.89551305  0.01192794  0.57977666    -0.81500
O1798       O  0.85199553  0.10922495  0.58666103    -0.75000
Al1799     Al  0.88160200  0.04091878  0.54135527     1.90100
O1800       O  0.88463438  0.05408737  0.61779564    -0.74100
O1801       O  0.90038309  0.15350176  0.58567432    -0.73900
O1802       O  0.93532464  0.09269227  0.60666100    -0.79600
O1803       O  0.89908694  0.15387368  0.53063333    -0.77800
O1804       O  0.89958360  0.08334529  0.55433238    -1.13900
O1805       O  0.90286355  0.10016246  0.98506906    -0.73100
C1806       C  0.87981715  0.07925775  0.97847022     0.97600
C1807       C  0.88978906  0.02032813  0.61004361     0.94000
Al1808     Al  0.89359342  0.10095014  0.59581530     1.55600
O1809       O  0.91842752  0.02221047  0.51681055    -0.77800
C1810       C  0.89736716  0.17150882  0.55826341     0.98200
C1811       C  0.83289466  0.08487449  0.57642169     0.93000
O1812       O  0.84227171  0.05437809  0.56269403    -0.83100
O1813       O  0.61672113  0.44483206  0.70694170    -0.82500
C1814       C  0.70733321  0.39580008  0.61775996     0.96800
O1815       O  0.70329492  0.38021696  0.64638823    -0.71600
O1816       O  0.70406282  0.43707355  0.68580484    -0.75200
Al1817     Al  0.67661409  0.39766222  0.68255515     1.49000
C1818       C  0.69870466  0.47012894  0.69479813     0.92100
O1819       O  0.64871098  0.49335869  0.62986307    -0.81500
O1820       O  0.60242181  0.39776547  0.62500794    -0.75000
Al1821     Al  0.63412474  0.46582814  0.66786025     1.90100
O1822       O  0.63485961  0.45179975  0.59206725    -0.74100
O1823       O  0.64952583  0.35180361  0.62625481    -0.73900
O1824       O  0.68486730  0.41058854  0.60203021    -0.79600
O1825       O  0.65134839  0.35377914  0.68148050    -0.77800
O1826       O  0.65139098  0.42294446  0.65519403    -1.13900
O1827       O  0.65687957  0.41287185  0.72480099    -0.73100
C1828       C  0.63239965  0.43150052  0.73096078     0.97600
C1829       C  0.64099800  0.48537632  0.59998530     0.94000
Al1830     Al  0.64357427  0.40441756  0.61449338     1.55600
O1831       O  0.67133048  0.48383606  0.69248537    -0.77800
C1832       C  0.64769047  0.33517830  0.65452463     0.98200
C1833       C  0.58433234  0.42426491  0.63220177     0.93000
O1834       O  0.59426121  0.45448158  0.64589406    -0.90300
O1835       O  0.59374516  0.05324852  0.64275512    -0.82500
C1836       C  0.70691493  0.11277232  0.61706931     0.96800
O1837       O  0.68459996  0.09888511  0.60054660    -0.71600
O1838       O  0.63488058  0.05791881  0.58825374    -0.75200
Al1839     Al  0.64307190  0.10427340  0.61255719     1.49000
C1840       C  0.64060739  0.02382398  0.59500074     0.92100
O1841       O  0.67103918  0.02106106  0.68780443    -0.81500
O1842       O  0.65607522  0.09043090  0.72305647    -0.75000
Al1843     Al  0.63370291  0.04037255  0.66381449     1.90100
O1844       O  0.70368631  0.06813484  0.68321705    -0.74100
O1845       O  0.65027401  0.15143253  0.68161840    -0.73900
O1846       O  0.70262679  0.12720741  0.64607075    -0.79600
O1847       O  0.64859702  0.15630883  0.62649393    -0.77800
O1848       O  0.65081142  0.08377330  0.65272109    -1.13900
O1849       O  0.60155466  0.11033485  0.62250312    -0.73100
C1850       C  0.58343736  0.08452728  0.63122638     0.97600
C1851       C  0.69826659  0.03474342  0.69116922     0.94000
Al1852     Al  0.67584704  0.10768018  0.68127509     1.55600
O1853       O  0.64791153  0.01433798  0.62469756    -0.77800
C1854       C  0.64734187  0.17157406  0.65544077     0.98200
C1855       C  0.63165743  0.07152876  0.72837416     0.93000
O1856       O  0.61641012  0.05934947  0.70366817    -0.83100
C1857       C  0.62879040  0.23293471  0.63202144    -0.21000
C1858       C  0.64439368  0.21334688  0.65802397    -0.07600
C1859       C  0.65909649  0.23434046  0.68407580     0.13300
C1860       C  0.65855991  0.27389384  0.68276403    -0.21100
C1861       C  0.64408892  0.29344925  0.65602324    -0.07600
C1862       C  0.62829490  0.27253350  0.63072431     0.13300
C1863       C  0.61031066  0.29155721  0.60262493    -0.24400
H1864       H  0.61725120  0.21709446  0.61220669     0.14500
H1865       H  0.67069923  0.28968379  0.70217892     0.14600
C1866       C  0.67687580  0.21558107  0.71249511    -0.24400
H1867       H  0.59752759  0.27094081  0.58672755     0.04800
H1868       H  0.62624455  0.30709703  0.58578742     0.08000
H1869       H  0.59305347  0.31123558  0.61356025     0.08000
H1870       H  0.69561057  0.19764470  0.70202706     0.08000
H1871       H  0.66095287  0.19824148  0.72790427     0.08000
H1872       H  0.68788609  0.23640405  0.72968969     0.04800
C1873       C  0.50589242  0.13186552  0.61389894    -0.21000
C1874       C  0.48910754  0.10155722  0.60093300    -0.07600
C1875       C  0.50236776  0.06503398  0.60097577     0.13300
C1876       C  0.53267966  0.06007095  0.61297454    -0.21100
C1877       C  0.55010052  0.09055243  0.62471875    -0.07600
C1878       C  0.53630181  0.12691383  0.62597607     0.13300
C1879       C  0.55314597  0.16058089  0.64030595    -0.24400
H1880       H  0.49518350  0.15951711  0.61438397     0.14500
H1881       H  0.54324603  0.03236162  0.61167673     0.14600
C1882       C  0.98519910  0.02837898  0.59111657    -0.24400
H1883       H  0.53757180  0.18540898  0.64246806     0.04800
H1884       H  0.57248389  0.16888281  0.62360282     0.08000
H1885       H  0.56226119  0.15390242  0.66597867     0.08000
H1886       H  0.99802683  0.01540995  0.56987602     0.08000
H1887       H  0.96125722  0.03432788  0.58227591     0.08000
H1888       H  0.98394118  0.00753221  0.61196921     0.04800
C1889       C  0.74553853  0.07486194  0.58708496    -0.21000
C1890       C  0.73838550  0.10880483  0.60338387    -0.07600
C1891       C  0.76166293  0.13592002  0.60810535     0.13300
C1892       C  0.79175090  0.12780667  0.59719902    -0.21100
C1893       C  0.79954028  0.09269224  0.58267877    -0.07600
C1894       C  0.77574367  0.06614212  0.57692542     0.13300
C1895       C  0.78172259  0.02811301  0.56139259    -0.24400
H1896       H  0.72776785  0.05400538  0.58439141     0.14500
H1897       H  0.80948111  0.14885599  0.60118804     0.14600
C1898       C  0.75504250  0.17337627  0.62444241    -0.24400
H1899       H  0.76015683  0.01136235  0.55883365     0.04800
H1900       H  0.79802696  0.01174376  0.57763299     0.08000
H1901       H  0.79146697  0.03160326  0.53569402     0.08000
H1902       H  0.74853529  0.16929297  0.65127266     0.08000
H1903       H  0.73585641  0.18784633  0.61067318     0.08000
H1904       H  0.77563329  0.19207287  0.62409777     0.04800
C1905       C  0.74538132  0.43131813  0.58397424    -0.21000
C1906       C  0.73865831  0.39921175  0.60345863    -0.07600
C1907       C  0.76235499  0.37299472  0.61053707     0.13300
C1908       C  0.79256310  0.38116608  0.60056741    -0.21100
C1909       C  0.80010416  0.41501086  0.58377391    -0.07600
C1910       C  0.77576640  0.43954989  0.57389238     0.13300
C1911       C  0.78122441  0.47417792  0.55281400    -0.24400
H1912       H  0.72693993  0.45107027  0.57783487     0.14500
H1913       H  0.81058497  0.36105613  0.60711807     0.14600
C1914       C  0.75614200  0.33619608  0.62829238    -0.24400
H1915       H  0.75915319  0.48866456  0.54600468     0.04800
H1916       H  0.79290086  0.46619776  0.52899643     0.08000
H1917       H  0.79572673  0.49451381  0.56694328     0.08000
H1918       H  0.73724896  0.32087958  0.61495791     0.08000
H1919       H  0.74958061  0.34129039  0.65494741     0.08000
H1920       H  0.77694851  0.31767142  0.62872762     0.04800
C1921       C  0.51237539  0.39474300  0.58453401    -0.21000
C1922       C  0.48885155  0.40610144  0.60654644    -0.07600
C1923       C  0.49702023  0.42569991  0.63671663     0.13300
C1924       C  0.52845579  0.43204511  0.64422117    -0.21100
C1925       C  0.55166733  0.41957072  0.62247807    -0.07600
C1926       C  0.54350039  0.40132517  0.59184922     0.13300
C1927       C  0.56722162  0.38937574  0.56602003    -0.24400
H1928       H  0.50649625  0.38083811  0.56097582     0.14500
H1929       H  0.53501820  0.44627772  0.66742938     0.14600
C1930       C  0.97307829  0.42839321  0.66685827    -0.24400
H1931       H  0.55619985  0.38034867  0.54187541     0.04800
H1932       H  0.58095592  0.36516888  0.57563657     0.08000
H1933       H  0.58294510  0.41313798  0.56027211     0.08000
H1934       H  0.95927947  0.40307257  0.67322923     0.08000
H1935       H  0.95763499  0.45092245  0.65690739     0.08000
H1936       H  0.98367087  0.43902497  0.69069181     0.04800
C1937       C  0.88667592  0.27404465  0.58637306    -0.21000
C1938       C  0.89489180  0.29376107  0.55694403    -0.07600
C1939       C  0.90187342  0.27272677  0.52741251     0.13300
C1940       C  0.90121351  0.23318624  0.52858984    -0.21100
C1941       C  0.89429371  0.21347441  0.55840081    -0.07600
C1942       C  0.88635548  0.23447373  0.58763275     0.13300
C1943       C  0.87740612  0.21583091  0.62040951    -0.24400
H1944       H  0.88097768  0.28974709  0.60896633     0.14500
H1945       H  0.90728278  0.21749575  0.50610673     0.14600
C1946       C  0.89047504  0.29285248  0.99438555    -0.24400
H1947       H  0.87002160  0.23666419  0.63966092     0.04800
H1948       H  0.89752127  0.20024758  0.63124142     0.08000
H1949       H  0.85770946  0.19634311  0.61596798     0.08000
H1950       H  0.91200062  0.30896250  0.98956724     0.08000
H1951       H  0.89205445  0.30934200  0.48508590     0.08000
H1952       H  0.88799113  0.27195239  0.97369493     0.04800
C1953       C  0.83740533  0.48133999  0.91104548    -0.21000
C1954       C  0.86245787  0.49436582  0.89199808    -0.07600
C1955       C  0.89260843  0.48090675  0.89966624     0.13300
C1956       C  0.89727652  0.45630955  0.92712995    -0.21100
C1957       C  0.87276164  0.44619649  0.94839851    -0.07600
C1958       C  0.84215539  0.45739503  0.93911952     0.13300
C1959       C  0.81407886  0.44508971  0.95858509    -0.24400
H1960       H  0.81415859  0.49105582  0.90485025     0.14500
H1961       H  0.92077948  0.44827739  0.93409765     0.14600
C1962       C  0.92025410  0.49427236  0.88009123    -0.24400
H1963       H  0.79744881  0.43106692  0.94113450     0.04800
H1964       H  0.80258996  0.47005352  0.96980957     0.08000
H1965       H  0.81983911  0.42468912  0.97894635     0.08000
H1966       H  0.92253809  0.52518568  0.88295093     0.08000
H1967       H  0.91722800  0.48711125  0.85295674     0.08000
H1968       H  0.94218823  0.48114089  0.88927505     0.04800
C1969       C  0.85143633  0.55230357  0.67653242    -0.21000
C1970       C  0.87607174  0.56155231  0.69846778    -0.07600
C1971       C  0.90654267  0.54962206  0.68985792     0.13300
C1972       C  0.91100108  0.52633918  0.66141232    -0.21100
C1973       C  0.88584231  0.51443530  0.64153792    -0.07600
C1974       C  0.85596148  0.52878969  0.64840938     0.13300
C1975       C  0.82864171  0.51845592  0.62645273    -0.24400
H1976       H  0.82807244  0.56104260  0.68283420     0.14500
H1977       H  0.93401835  0.51601835  0.65557050     0.14600
C1978       C  0.93447603  0.56091881  0.71067038    -0.24400
H1979       H  0.80678197  0.53160039  0.63537002     0.04800
H1980       H  0.82551918  0.48751197  0.62648659     0.08000
H1981       H  0.83289791  0.52819686  0.60023546     0.08000
H1982       H  0.93396980  0.54753521  0.73598670     0.08000
H1983       H  0.93497056  0.59198655  0.71344710     0.08000
H1984       H  0.95644949  0.55203714  0.69852004     0.04800
C1985       C  0.71877118  0.51144527  0.74028333    -0.21000
C1986       C  0.72486801  0.49017393  0.71137139    -0.07600
C1987       C  0.75629266  0.48298194  0.70246695     0.13300
C1988       C  0.78048830  0.49665966  0.72305733    -0.21100
C1989       C  0.77439406  0.51772587  0.75210322    -0.07600
C1990       C  0.74296955  0.52547598  0.76063920     0.13300
C1991       C  0.73448898  0.54793294  0.79157014    -0.24400
H1992       H  0.69488886  0.51616786  0.74758716     0.14500
H1993       H  0.80437588  0.49210841  0.71569905     0.14600
C1994       C  0.76478595  0.46185788  0.67074051    -0.24400
H1995       H  0.70905104  0.54868932  0.79549114     0.04800
H1996       H  0.74186151  0.57759517  0.78882583     0.08000
H1997       H  0.74550733  0.53516179  0.81432507     0.08000
H1998       H  0.75321444  0.47504396  0.64848129     0.08000
H1999       H  0.75807948  0.43187447  0.67269448     0.08000
H2000       H  0.79016668  0.46212253  0.66638777     0.04800
C2001       C  0.77991327  0.00581295  0.71730401    -0.21000
C2002       C  0.77474822  0.99093176  0.74952261    -0.07600
C2003       C  0.74377865  0.98753581  0.76114783     0.13300
C2004       C  0.71895252  0.99941248  0.74035767    -0.21100
C2005       C  0.72413536  0.01445852  0.70816758    -0.07600
C2006       C  0.75511387  0.01761549  0.69651827     0.13300
C2007       C  0.76224580  0.03278746  0.66185580    -0.24400
H2008       H  0.80343596  0.00698499  0.70786694     0.14500
H2009       H  0.69543344  0.99829454  0.74980900     0.14600
C2010       C  0.73669997  0.97213695  0.79578403    -0.24400
H2011       H  0.78724504  0.02990361  0.65570800     0.04800
H2012       H  0.75645885  0.06313618  0.66047672     0.08000
H2013       H  0.74873376  0.01711640  0.64247043     0.08000
H2014       H  0.74944413  0.98839877  0.81539607     0.08000
H2015       H  0.74327107  0.94205023  0.79745579     0.08000
H2016       H  0.71157099  0.97379654  0.80133089     0.04800
C2017       C  0.86500847  0.77614396  0.78204770    -0.21000
C2018       C  0.85515307  0.79554097  0.81110043    -0.07600
C2019       C  0.84605765  0.77404114  0.83968004     0.13300
C2020       C  0.84621852  0.73463023  0.83794760    -0.21100
C2021       C  0.85487324  0.71516516  0.80861029    -0.07600
C2022       C  0.86510754  0.73639396  0.78042838     0.13300
C2023       C  0.87650670  0.71762629  0.74872740    -0.24400
H2024       H  0.87236225  0.79220199  0.76024625     0.14500
H2025       H  0.83845429  0.71883719  0.85972763     0.14600
C2026       C  0.83484122  0.79184604  0.87202436    -0.24400
H2027       H  0.88530853  0.73842209  0.73017918     0.04800
H2028       H  0.85729656  0.70203072  0.73630362     0.08000
H2029       H  0.89579034  0.69797274  0.75507618     0.08000
H2030       H  0.81437145  0.81003228  0.86671683     0.08000
H2031       H  0.85375711  0.80855937  0.88380673     0.08000
H2032       H  0.82764807  0.77053882  0.89094308     0.04800
C2033       C  0.90262428  0.97036490  0.69393742    -0.21000
C2034       C  0.87619612  0.94714261  0.69614329    -0.07600
C2035       C  0.85694495  0.94396735  0.66691932     0.13300
C2036       C  0.86364735  0.96562327  0.63771897    -0.21100
C2037       C  0.88847137  0.99127243  0.63721246    -0.07600
C2038       C  0.90849585  0.99290368  0.66560774     0.13300
C2039       C  0.93585223  0.01912228  0.66758096    -0.24400
H2040       H  0.91812909  0.97310365  0.71553461     0.14500
H2041       H  0.84807404  0.96457681  0.61606295     0.14600
C2042       C  0.82852671  0.91946793  0.66666873    -0.24400
H2043       H  0.93236489  0.03963775  0.68836730     0.04800
H2044       H  0.93946161  0.03493412  0.64393045     0.08000
H2045       H  0.95731954  0.00268887  0.67279972     0.08000
H2046       H  0.81153248  0.92998605  0.68537171     0.08000
H2047       H  0.83516924  0.89002488  0.67283923     0.08000
H2048       H  0.81685039  0.91945735  0.64151790     0.04800
C2049       C  0.83680100  0.03007400  0.90787447    -0.21000
C2050       C  0.86179034  0.02020101  0.88726299    -0.07600
C2051       C  0.89082030  0.03765602  0.89279799     0.13300
C2052       C  0.89477706  0.06259561  0.92014501    -0.21100
C2053       C  0.87069777  0.06937132  0.94309328    -0.07600
C2054       C  0.84077876  0.05473803  0.93544181     0.13300
C2055       C  0.81278059  0.06364699  0.95657170    -0.24400
H2056       H  0.81430925  0.01737554  0.90325820     0.14500
H2057       H  0.91779752  0.07322332  0.92580878     0.14600
C2058       C  0.91833506  0.02764184  0.87142521    -0.24400
H2059       H  0.79396032  0.07490790  0.94004488     0.04800
H2060       H  0.81763121  0.08525693  0.97610178     0.08000
H2061       H  0.80447567  0.03763184  0.96909725     0.08000
H2062       H  0.91316290  0.03401726  0.84446567     0.08000
H2063       H  0.92347206  0.99720251  0.87432899     0.08000
H2064       H  0.93940566  0.04353540  0.87905065     0.04800
C2065       C  0.49606136  0.52805361  0.95822428    -0.21000
C2066       C  0.52623578  0.51350813  0.96396522    -0.07600
C2067       C  0.53074442  0.48708719  0.99011949     0.13300
C2068       C  0.00546486  0.47700881  0.00805899    -0.21100
C2069       C  0.97535686  0.49212499  0.00285907    -0.07600
C2070       C  0.97128645  0.52043054  0.97818343     0.13300
C2071       C  0.94001392  0.53790616  0.97096045    -0.24400
H2072       H  0.49246755  0.54893226  0.93854242     0.14500
H2073       H  0.00891335  0.45501841  0.02675588     0.14600
C2074       C  0.56241618  0.47146178  0.99851250    -0.24400
H2075       H  0.44059286  0.55657963  0.95044732     0.04800
H2076       H  0.93133902  0.55209093  0.99402255     0.08000
H2077       H  0.92334237  0.51669485  0.46453757     0.08000
H2078       H  0.57840169  0.49462812  0.00556866     0.08000
H2079       H  0.57172167  0.45607757  0.97638248     0.08000
H2080       H  0.06120932  0.44977674  0.01633240     0.04800
C2081       C  0.99015738  0.63365814  0.85730473    -0.21000
C2082       C  0.51103775  0.60099685  0.85612309    -0.07600
C2083       C  0.49953527  0.56459044  0.84926109     0.13300
C2084       C  0.96850180  0.56247308  0.83859887    -0.21100
C2085       C  0.94795723  0.59307073  0.83790379    -0.07600
C2086       C  0.95931293  0.62959873  0.84656494     0.13300
C2087       C  0.93969515  0.66490412  0.84444380    -0.24400
H2088       H  0.99883721  0.66112909  0.86451392     0.14500
H2089       H  0.96020835  0.53473271  0.83182181     0.14600
C2090       C  0.51872029  0.52980552  0.85590852    -0.24400
H2091       H  0.95364718  0.69068071  0.84885606     0.04800
H2092       H  0.92147548  0.66457164  0.86409022     0.08000
H2093       H  0.92901505  0.66743778  0.81887432     0.08000
H2094       H  0.52578504  0.52869981  0.88288427     0.08000
H2095       H  0.53966329  0.53034934  0.83994114     0.08000
H2096       H  0.50574935  0.50364755  0.84997501     0.04800
C2097       C  0.70507485  0.62331611  0.85987944    -0.21000
C2098       C  0.69870096  0.59034742  0.87864790    -0.07600
C2099       C  0.72367823  0.56676393  0.88830971     0.13300
C2100       C  0.75363986  0.57571691  0.87745919    -0.21100
C2101       C  0.75943129  0.60749813  0.85715762    -0.07600
C2102       C  0.73489682  0.63215445  0.84901887     0.13300
C2103       C  0.73977040  0.66798991  0.82928043    -0.24400
H2104       H  0.68645186  0.64227312  0.85265752     0.14500
H2105       H  0.77258650  0.55683949  0.88394767     0.14600
C2106       C  0.71941492  0.53250039  0.91014995    -0.24400
H2107       H  0.74668582  0.66138346  0.80299797     0.04800
H2108       H  0.71827684  0.68527151  0.82773002     0.08000
H2109       H  0.75798174  0.68523752  0.84178226     0.08000
H2110       H  0.70485155  0.51152333  0.89694218     0.08000
H2111       H  0.70831249  0.54078704  0.93413888     0.08000
H2112       H  0.74187583  0.51865633  0.91648206     0.04800
C2113       C  0.66235314  0.52661313  0.55505082    -0.21000
C2114       C  0.63700210  0.51552047  0.57446752    -0.07600
C2115       C  0.60752507  0.53151867  0.56772983     0.13300
C2116       C  0.60371705  0.55655649  0.54040187    -0.21100
C2117       C  0.62838168  0.56461551  0.51857146    -0.07600
C2118       C  0.65850032  0.55111393  0.52733626     0.13300
C2119       C  0.68736567  0.55118697  0.00260793    -0.24400
H2120       H  0.68510858  0.51493971  0.56069541     0.14500
H2121       H  0.58057806  0.56639174  0.53390712     0.14600
C2122       C  0.57961824  0.52032147  0.58802654    -0.24400
H2123       H  0.70728514  0.56117198  0.01813282     0.04800
H2124       H  0.68310761  0.57282592  0.98288371     0.08000
H2125       H  0.69383118  0.52411766  0.99056108     0.08000
H2126       H  0.58365988  0.52695819  0.61512553     0.08000
H2127       H  0.57544127  0.48970142  0.58513952     0.08000
H2128       H  0.55832135  0.53539278  0.57949905     0.04800
C2129       C  0.64985331  0.45629943  0.78633360    -0.21000
C2130       C  0.62498180  0.44441258  0.76586368    -0.07600
C2131       C  0.59429243  0.45328042  0.77611954     0.13300
C2132       C  0.58959617  0.47607525  0.80486670    -0.21100
C2133       C  0.61472154  0.49082543  0.82325889    -0.07600
C2134       C  0.64508433  0.47949507  0.81459861     0.13300
C2135       C  0.67259017  0.49221961  0.83512314    -0.24400
H2136       H  0.67339627  0.44977300  0.77879607     0.14500
H2137       H  0.56623149  0.48376203  0.81197986     0.14600
C2138       C  0.56638464  0.43914773  0.75675235    -0.24400
H2139       H  0.69477100  0.48106781  0.82506710     0.04800
H2140       H  0.66998291  0.48193129  0.86142167     0.08000
H2141       H  0.67382608  0.52335198  0.83509320     0.08000
H2142       H  0.56777122  0.40808746  0.75423528     0.08000
H2143       H  0.56509251  0.45219824  0.73130612     0.08000
H2144       H  0.54441772  0.44611474  0.76986619     0.04800
C2145       C  0.70675515  0.88348796  0.85825820    -0.21000
C2146       C  0.69939238  0.91450663  0.87894827    -0.07600
C2147       C  0.72365219  0.93743013  0.89131158     0.13300
C2148       C  0.75409917  0.93003261  0.88086133    -0.21100
C2149       C  0.76092158  0.90046999  0.85834509    -0.07600
C2150       C  0.73696445  0.87611233  0.84784410     0.13300
C2151       C  0.74263230  0.84223826  0.82569506    -0.24400
H2152       H  0.68855686  0.86513207  0.84903103     0.14500
H2153       H  0.77252020  0.94853810  0.88933863     0.14600
C2154       C  0.71795311  0.96947453  0.91541608    -0.24400
H2155       H  0.72151591  0.82465890  0.82281489     0.04800
H2156       H  0.76109064  0.82426841  0.83707303     0.08000
H2157       H  0.74938809  0.85127202  0.79993935     0.08000
H2158       H  0.70601186  0.95891459  0.93830175     0.08000
H2159       H  0.70358519  0.99149816  0.90294710     0.08000
H2160       H  0.73996570  0.98290238  0.92374560     0.04800
C2161       C  0.99170086  0.87439210  0.84457427    -0.21000
C2162       C  0.01124190  0.90478724  0.85097464    -0.07600
C2163       C  0.00018863  0.94204349  0.84633352     0.13300
C2164       C  0.96943410  0.94784404  0.83611333    -0.21100
C2165       C  0.94915057  0.91759853  0.83181803    -0.07600
C2166       C  0.96075278  0.88014509  0.83481443     0.13300
C2167       C  0.94107466  0.84590873  0.82756384    -0.24400
H2168       H  0.50246987  0.84646860  0.84440101     0.14500
H2169       H  0.96087703  0.97637968  0.83335399     0.14600
C2170       C  0.01926906  0.97660596  0.85378511    -0.24400
H2171       H  0.95520180  0.81971888  0.82723484     0.04800
H2172       H  0.92965655  0.84877968  0.80240112     0.08000
H2173       H  0.92333947  0.84216316  0.84742906     0.08000
H2174       H  0.52201118  0.99518683  0.83704473     0.08000
H2175       H  0.04297445  0.97037718  0.86308018     0.08000
H2176       H  0.00760654  0.99362404  0.87350031     0.04800
C2177       C  0.59438493  0.73104582  0.93530001    -0.21000
C2178       C  0.60420333  0.71154734  0.90636505    -0.07600
C2179       C  0.61533816  0.73275878  0.87858512     0.13300
C2180       C  0.61503115  0.77234302  0.88002592    -0.21100
C2181       C  0.60382473  0.79192745  0.90830250    -0.07600
C2182       C  0.59387776  0.77067525  0.93667486     0.13300
C2183       C  0.58151595  0.78910236  0.96815665    -0.24400
H2184       H  0.58594554  0.71515367  0.95670655     0.14500
H2185       H  0.62314564  0.78818067  0.85843426     0.14600
C2186       C  0.62790454  0.71421053  0.84726199    -0.24400
H2187       H  0.57419802  0.76808608  0.98727661     0.04800
H2188       H  0.56092989  0.80664996  0.96172164     0.08000
H2189       H  0.59980678  0.80673128  0.98003077     0.08000
H2190       H  0.60908761  0.69917995  0.83360461     0.08000
H2191       H  0.64671253  0.69421657  0.85433122     0.08000
H2192       H  0.63773546  0.73504471  0.82939401     0.04800
C2193       C  0.58919641  0.02007685  0.79891365    -0.21000
C2194       C  0.61389249  0.01180825  0.82091448    -0.07600
C2195       C  0.64277890  0.02946989  0.81573417     0.13300
C2196       C  0.64716380  0.05214990  0.78688649    -0.21100
C2197       C  0.62319945  0.05790368  0.76299134    -0.07600
C2198       C  0.59325566  0.04323792  0.77032012     0.13300
C2199       C  0.56535352  0.05141779  0.74813996    -0.24400
H2200       H  0.56689995  0.00713173  0.80336307     0.14500
H2201       H  0.67004485  0.06332549  0.78192264     0.14600
C2202       C  0.66926095  0.02340333  0.84023527    -0.24400
H2203       H  0.54354744  0.04162939  0.76001122     0.04800
H2204       H  0.56724926  0.03669221  0.72355761     0.08000
H2205       H  0.56320156  0.08221159  0.74393365     0.08000
H2206       H  0.67494695  0.99301227  0.84186548     0.08000
H2207       H  0.66252259  0.03358207  0.86567078     0.08000
H2208       H  0.69044954  0.03871835  0.83242174     0.04800
C2209       C  0.65333956  0.96428334  0.51642742    -0.21000
C2210       C  0.62395907  0.94760814  0.51169847    -0.07600
C2211       C  0.60152579  0.95240316  0.53749130     0.13300
C2212       C  0.60835829  0.97575458  0.56546200    -0.21100
C2213       C  0.63673494  0.99484751  0.56822772    -0.07600
C2214       C  0.65971629  0.98813523  0.54390478     0.13300
C2215       C  0.69073495  0.00700156  0.54643442    -0.24400
H2216       H  0.67095348  0.96062672  0.49730114     0.14500
H2217       H  0.59079611  0.98078618  0.58440799     0.14600
C2218       C  0.56973306  0.93506299  0.53501005    -0.24400
H2219       H  0.70623685  0.99890054  0.52535287     0.04800
H2220       H  0.70212274  0.99859599  0.57057589     0.08000
H2221       H  0.68752599  0.03799020  0.54563623     0.08000
H2222       H  0.57189283  0.90403450  0.53281095     0.08000
H2223       H  0.55699898  0.94648145  0.51273228     0.08000
H2224       H  0.55559747  0.94124588  0.55769280     0.04800
C2225       C  0.99491719  0.97938709  0.94930461    -0.21000
C2226       C  0.52405427  0.99140796  0.95780551    -0.07600
C2227       C  0.52818445  0.02025292  0.98182991     0.13300
C2228       C  0.50389525  0.03409298  0.49677063    -0.21100
C2229       C  0.97092951  0.01777056  0.49347895    -0.07600
C2230       C  0.96934061  0.99217282  0.96796046     0.13300
C2231       C  0.93765689  0.97644289  0.96016450    -0.24400
H2232       H  0.99106829  0.95769286  0.93052346     0.14500
H2233       H  0.50755029  0.05583675  0.51557055     0.14600
C2234       C  0.55960995  0.03693105  0.98939316    -0.24400
H2235       H  0.93825515  0.95584484  0.93908070     0.04800
H2236       H  0.92161562  0.99948895  0.95267703     0.08000
H2237       H  0.92848431  0.96185537  0.98277756     0.08000
H2238       H  0.57574935  0.01471844  0.99859334     0.08000
H2239       H  0.56045752  0.05748847  0.50756968     0.08000
H2240       H  0.57127950  0.05012444  0.46435869     0.04800
loop_ 
_geom_bond_atom_site_label_1 
_geom_bond_atom_site_label_2 
_geom_bond_distance 
_geom_bond_site_symmetry_2 
_ccdc_geom_bond_type 
O1           C16   1.279       .  A
O1           Al9   1.971       .  S
C2           O12   1.272       .  A
C2            O3   1.258       .  A
C2         C1602   1.454       .  S
O3           Al5   1.862       .  S
O4            C6   1.266       .  A
O4           Al5   1.950       .  S
Al5          O13   1.949       .  S
Al5          O15   1.847       .  S
Al5          O14   1.771       .  S
C6           O19   1.259       .  A
C6          C514   1.488   1_565  S
O7           C17   1.277       .  A
O7           Al9   1.980       .  S
O8           C21   1.268       .  A
O8          Al18   1.954       .  S
Al9          O22   1.871       .  S
Al9          O19   1.910       .  S
Al9          O14   1.765       .  S
O10          C17   1.251       .  A
O10         Al18   1.843       .  S
O11          C20   1.261       .  A
O11         Al18   1.898       .  S
O12         Al18   1.937       .  S
O13          C20   1.270       .  A
O14         Al18   1.772       .  S
O15          C16   1.259       .  A
C16         C466   1.485       .  S
C17         C546   1.494       .  S
C20         C501   1.494       .  S
C21          O22   1.255       .  A
C21        C1090   1.494       .  S
O23          C38   1.255       .  A
O23         Al31   1.882       .  S
C24          O34   1.260       .  A
C24          O25   1.275       .  A
C24         C402   1.464       .  S
O25         Al27   1.953       .  S
O26          C28   1.250       .  A
O26         Al27   1.831       .  S
Al27         O35   1.908       .  S
Al27         O37   1.953       .  S
Al27         O36   1.774       .  S
C28          O41   1.279       .  A
C28         C386   1.494       .  S
O29          C39   1.259       .  A
O29         Al31   1.922       .  S
O30          C43   1.259       .  A
O30         Al40   1.841       .  S
Al31         O44   1.984       .  S
Al31         O41   1.984       .  S
Al31         O36   1.771       .  S
O32          C39   1.261       .  A
O32         Al40   1.936       .  S
O33          C42   1.265       .  A
O33         Al40   1.937       .  S
O34         Al40   1.861       .  S
O35          C42   1.263       .  A
O36         Al40   1.772       .  S
O37          C38   1.269       .  A
C38         C997   1.495       .  S
C39         C453   1.490       .  S
C42         C498   1.491       .  S
C43          O44   1.282       .  A
C43         C418   1.490       .  S
O45          C60   1.251       .  A
O45         Al53   1.868       .  S
C46          O56   1.260       .  A
C46          O47   1.274       .  A
C46         C469   1.482       .  S
O47         Al49   1.949       .  S
O48          C50   1.250       .  A
O48         Al49   1.829       .  S
Al49         O57   1.907       .  S
Al49         O59   1.966       .  S
Al49         O58   1.778       .  S
C50          O63   1.278       .  A
C50         C322   1.477       .  S
O51          C61   1.258       .  A
O51         Al53   1.910       .  S
O52          C65   1.254       .  A
O52         Al62   1.839       .  S
Al53         O66   1.952       .  S
Al53         O63   1.978       .  S
Al53         O58   1.765       .  S
O54          C61   1.261       .  A
O54         Al62   1.929       .  S
O55          C64   1.267       .  A
O55         Al62   1.933       .  S
O56         Al62   1.865       .  S
O57          C64   1.265       .  A
O58         Al62   1.771       .  S
O59          C60   1.266       .  A
C60         C354   1.505       .  S
C61         C370   1.485   1_565  S
C64         C338   1.499       .  S
C65          O66   1.277       .  A
C65         C485   1.477       .  S
O67          C82   1.280       .  A
O67         Al75   1.959       .  S
C68          O78   1.275       .  A
C68          O69   1.261       .  A
C68         C421   1.483       .  S
O69         Al71   1.869       .  S
O70          C72   1.260       .  A
O70         Al71   1.928       .  S
Al71         O79   1.934       .  S
Al71         O81   1.841       .  S
Al71         O80   1.776       .  S
C72          O85   1.256       .  A
C72         C274   1.482       .  S
O73          C83   1.276       .  A
O73         Al75   1.967       .  S
O74          C87   1.267       .  A
O74         Al84   1.948       .  S
Al75         O88   1.874       .  S
Al75         O85   1.912       .  S
Al75         O80   1.767       .  S
O76          C83   1.249       .  A
O76         Al84   1.834       .  S
O77          C86   1.260       .  A
O77         Al84   1.905       .  S
O78         Al84   1.948       .  S
O79          C86   1.268       .  A
O80         Al84   1.771       .  S
O81          C82   1.256       .  A
C82         C405   1.476       .  S
C83         C309   1.476       .  S
C86         C341   1.498       .  S
C87          O88   1.252       .  A
C87         C290   1.490       .  S
O89         C104   1.278       .  A
O89         Al97   1.965       .  S
C90         O100   1.275       .  A
C90          O91   1.259       .  A
C90        C1362   1.487       .  S
O91         Al93   1.876       .  S
O92          C94   1.263       .  A
O92         Al93   1.938       .  S
Al93        O101   1.956       .  S
Al93        O103   1.840       .  S
Al93        O102   1.773       .  S
C94         O107   1.257       .  A
C94         C293   1.484       .  S
O95         C105   1.278       .  A
O95         Al97   1.978       .  S
O96         C109   1.266       .  A
O96        Al666   1.939       .  S
Al97        O107   1.907       .  S
Al97        O670   1.877       .  S
Al97        O102   1.768       .  S
O98         C105   1.252       .  A
O98        Al106   1.841       .  S
O99         C108   1.262       .  A
O99        Al106   1.900       .  S
O100       Al106   1.942       .  S
O101        C108   1.272       .  A
O102       Al106   1.767       .  S
O103        C104   1.259       .  A
C104        C229   1.486       .  S
C105        C949   1.491       .  S
Al106       O656   1.956   1_554  S
C108        C258   1.502       .  S
C109        O110   1.253       .  A
C109        C277   1.489       .  S
O110       Al657   1.883       .  S
O111        C686   1.253   1_554  A
O111       Al119   1.876       .  S
C112        O122   1.260       .  A
C112        O113   1.275       .  A
C112       C1314   1.463       .  S
O113       Al115   1.953       .  S
O114        C116   1.252       .  A
O114       Al115   1.835       .  S
Al115       O123   1.910       .  S
Al115       O685   1.948   1_554  S
Al115       O124   1.774       .  S
C116        O129   1.277       .  A
C116        C549   1.493   1_554  S
O117        C127   1.259       .  A
O117       Al119   1.918       .  S
O118        C131   1.262       .  A
O118       Al128   1.846       .  S
Al119       O132   1.962       .  S
Al119       O129   1.976       .  S
Al119       O124   1.773       .  S
O120        C127   1.257       .  A
O120       Al128   1.914       .  S
O121        C130   1.263       .  A
O121       Al128   1.935       .  S
O122       Al128   1.868       .  S
O123        C130   1.263       .  A
O124       Al128   1.777       .  S
O125        C126   1.268       .  A
O125       Al675   1.948       .  S
C126        O671   1.253       .  A
C126        C373   1.493       .  S
C127        C357   1.485   1_545  S
C130        C261   1.501       .  S
C131        O132   1.280       .  A
C131        C213   1.486       .  S
O133        C148   1.255       .  A
O133       Al141   1.883       .  S
C134        O144   1.259       .  A
C134        O135   1.274       .  A
C134        C226   1.470       .  S
O135       Al137   1.943       .  S
O136        C138   1.249       .  A
O136       Al137   1.836       .  S
Al137       O145   1.908       .  S
Al137       O147   1.955       .  S
Al137       O146   1.770       .  S
C138        O151   1.275       .  A
C138        C306   1.476       .  S
O139        C149   1.258       .  A
O139       Al141   1.912       .  S
O140        C153   1.255       .  A
O140       Al150   1.837       .  S
Al141       O154   1.967       .  S
Al141       O151   1.968       .  S
Al141       O146   1.771       .  S
O142        C149   1.262       .  A
O142       Al150   1.938       .  S
O143        C152   1.266       .  A
O143       Al150   1.938       .  S
O144       Al150   1.858       .  S
O145        C152   1.264       .  A
O146       Al150   1.771       .  S
O147        C148   1.269       .  A
C148        C450   1.495       .  S
C149        C434   1.483       .  S
C152        C181   1.490       .  S
C153        O154   1.278       .  A
C153        C245   1.465       .  S
O155        C170   1.277       .  A
O155       Al163   1.953       .  S
C156        O166   1.272       .  A
C156        O157   1.261       .  A
C156        C210   1.469       .  S
O157       Al159   1.871       .  S
O158        C160   1.264       .  A
O158       Al159   1.947       .  S
Al159       O167   1.947       .  S
Al159       O169   1.851       .  S
Al159       O168   1.775       .  S
C160        O173   1.257       .  A
C160        C533   1.486   1_545  S
O161        C171   1.275       .  A
O161       Al163   1.965       .  S
O162        C175   1.270       .  A
O162       Al172   1.963       .  S
Al163       O176   1.875       .  S
Al163       O173   1.904       .  S
Al163       O168   1.769       .  S
O164        C171   1.250       .  A
O164       Al172   1.850       .  S
O165        C174   1.263       .  A
O165       Al172   1.905       .  S
O166       Al172   1.941       .  S
O167        C174   1.269       .  A
O168       Al172   1.773       .  S
O169        C170   1.258       .  A
C170        C197   1.470       .  S
C171        C325   1.476       .  S
C174        C178   1.493       .  S
C175        O176   1.254       .  A
C175        C517   1.493       .  S
C177        C178   1.406       .  A
C177        C182   1.409       .  A
C177        H184   1.084       .  S
C178        C179   1.419       .  A
C179        C180   1.408       .  A
C179        C186   1.508       .  S
C180        C181   1.404       .  A
C180        H185   1.084       .  S
C181        C182   1.417       .  A
C182        C183   1.508       .  S
C183        H187   1.111       .  S
C183        H188   1.109       .  S
C183        H189   1.111       .  S
C186        H190   1.111       .  S
C186        H191   1.109       .  S
C186        H192   1.111       .  S
C193        C194   1.396   1_455  A
C193        C198   1.401       .  A
C193        H200   1.084   1_455  S
C194       C1232   1.461       .  S
C194        C195   1.416   1_655  A
C195        C196   1.395       .  A
C195       C1322   1.507   1_455  S
C196        C197   1.398       .  A
C196        H201   1.085       .  S
C197        C198   1.421       .  A
C198        C199   1.510       .  S
C199        H203   1.111       .  S
C199        H204   1.109       .  S
C199        H205   1.110       .  S
C202       C1315   1.509       .  S
C202        H206   1.108       .  S
C202        H207   1.106       .  S
C202        H208   1.109       .  S
C209        C210   1.403       .  A
C209        C214   1.401       .  A
C209        H216   1.078       .  S
C210        C211   1.404       .  A
C211        C212   1.398       .  A
C211        C218   1.508       .  S
C212        C213   1.415       .  A
C212        H217   1.083       .  S
C213        C214   1.414       .  A
C214        C215   1.508       .  S
C215        H219   1.110       .  S
C215        H220   1.110       .  S
C215        H221   1.110       .  S
C218        H222   1.109       .  S
C218        H223   1.110       .  S
C218        H224   1.111       .  S
C225        C226   1.408       .  A
C225        C230   1.402       .  A
C225        H232   1.084       .  S
C226        C227   1.405       .  A
C227        C228   1.394       .  A
C227        C234   1.510       .  S
C228        C229   1.414       .  A
C228        H233   1.083       .  S
C229        C230   1.414       .  A
C230        C231   1.506       .  S
C231        H235   1.111       .  S
C231        H236   1.109       .  S
C231        H237   1.105       .  S
C234        H238   1.111       .  S
C234        H239   1.109       .  S
C234        H240   1.111       .  S
C241        C242   1.400   1_455  A
C241        C246   1.391       .  A
C241        H248   1.084       .  S
C242       C1210   1.481       .  S
C242        C243   1.427       .  A
C243        C244   1.403   1_655  A
C243       C1370   1.509       .  S
C244        C245   1.395       .  A
C244        H249   1.084       .  S
C245        C246   1.418       .  A
C246        C247   1.512       .  S
C247        H251   1.111       .  S
C247        H252   1.108       .  S
C247        H253   1.109       .  S
C250       C1363   1.508       .  S
C250        H254   1.110       .  S
C250        H255   1.109       .  S
C250        H256   1.111       .  S
C257        C258   1.407       .  A
C257        C262   1.409       .  A
C257        H264   1.084       .  S
C258        C259   1.422       .  A
C259        C260   1.408       .  A
C259        C826   1.509   1_554  S
C260        C261   1.406       .  A
C260        H265   1.084       .  S
C261        C262   1.422       .  A
C262        C263   1.509       .  S
C263        H267   1.111       .  S
C263        H268   1.110       .  S
C263        H269   1.111       .  S
C266        C819   1.509       .  S
C266        H270   1.110       .  S
C266        H272   1.111       .  S
C266        H831   1.110       .  S
H271        C826   1.110       .  S
C273        C274   1.402       .  A
C273        C278   1.411       .  A
C273        H280   1.085       .  S
C274        C275   1.412       .  A
C275        C276   1.404       .  A
C275        C282   1.505       .  S
C276        C277   1.404       .  A
C276        H281   1.085       .  S
C277        C278   1.421       .  A
C278        C279   1.506       .  S
C279        H283   1.111       .  S
C279        H284   1.110       .  S
C279        H285   1.109       .  S
C282        H286   1.110       .  S
C282        H287   1.110       .  S
C282        H288   1.111       .  S
C289        C290   1.405       .  A
C289        C294   1.406       .  A
C289        H296   1.084       .  S
C290        C291   1.421       .  A
C291        C292   1.410       .  A
C291        C298   1.507       .  S
C292        C293   1.401       .  A
C292        H297   1.083       .  S
C293        C294   1.412       .  A
C294        C295   1.503       .  S
C295        H299   1.111       .  S
C295        H300   1.108       .  S
C295        H301   1.110       .  S
C298        H302   1.110       .  S
C298        H303   1.109       .  S
C298        H304   1.111       .  S
C305        C306   1.397       .  A
C305        C310   1.402       .  A
C305        H312   1.085       .  S
C306        C307   1.423       .  A
C307        C308   1.403       .  A
C307        C314   1.509       .  S
C308        C309   1.398       .  A
C308        H313   1.085       .  S
C309        C310   1.422       .  A
C310        C311   1.508       .  S
C311        H315   1.109       .  S
C311        H316   1.107       .  S
C311        H317   1.110       .  S
C314        H318   1.110       .  S
C314        H319   1.108       .  S
C314        H320   1.109       .  S
C321        C322   1.399   1_545  A
C321        C326   1.405       .  A
C321        H328   1.085       .  S
C322        C323   1.422       .  A
C323        C324   1.401       .  A
C323        C330   1.509       .  S
C324        C325   1.396   1_565  A
C324        H329   1.084       .  S
C325        C326   1.420       .  A
C326        C327   1.506       .  S
C327        H331   1.111       .  S
C327        H332   1.108       .  S
C327        H333   1.110       .  S
C330        H334   1.110       .  S
C330        H335   1.107       .  S
C330        H336   1.106       .  S
C337        C338   1.409       .  A
C337        C342   1.410       .  A
C337        H344   1.084       .  S
C338        C339   1.422       .  A
C339        C340   1.402       .  A
C339        C346   1.510       .  S
C340        C341   1.405       .  A
C340        H345   1.083       .  S
C341        C342   1.420       .  A
C342        C343   1.508       .  S
C343        H347   1.111       .  S
C343        H348   1.110       .  S
C343        H349   1.111       .  S
C346        H350   1.110       .  S
C346        H351   1.110       .  S
C346        H352   1.111       .  S
C353        C354   1.413       .  A
C353        C358   1.401       .  A
C353        H360   1.083       .  S
C354        C355   1.421       .  A
C355        C356   1.416       .  A
C355        C362   1.505       .  S
C356        C357   1.406       .  A
C356        H361   1.084       .  S
C357        C358   1.409       .  A
C358        C359   1.508   1_565  S
C359        H363   1.109       .  S
C359        H364   1.104       .  S
C359        H365   1.111       .  S
C362        H366   1.110       .  S
C362        H367   1.110       .  S
C362        H368   1.111       .  S
C369        C370   1.400       .  A
C369        C374   1.409       .  A
C369        H376   1.085       .  S
C370        C371   1.414       .  A
C371        C372   1.410       .  A
C371        C378   1.506       .  S
C372        C373   1.406       .  A
C372        H377   1.084       .  S
C373        C374   1.422       .  A
C374        C375   1.507       .  S
C375        H379   1.110       .  S
C375        H380   1.109       .  S
C375        H381   1.110       .  S
C378        H382   1.110       .  S
C378        H383   1.110       .  S
C378        H384   1.111       .  S
C385        C386   1.417   1_655  A
C385       C1510   1.405       .  A
C385        H392   1.084       .  S
C386        C387   1.408       .  A
C387       C1508   1.406       .  A
C387        C394   1.506       .  S
C388        C389   1.416       .  A
C388       C1507   1.409       .  A
C388        H393   1.084       .  S
C389        C665   1.498       .  S
C389        C390   1.411       .  A
C390       C1505   1.409       .  A
C390        C391   1.507       .  S
C391        H396   1.110       .  S
C391       H1515   1.111       .  S
C391        H957   1.107       .  S
C394        H398   1.108       .  S
C394        H399   1.110       .  S
C394       H1520   1.108       .  S
H395       C1511   1.111       .  S
H397        C951   1.106       .  S
H400       C1514   1.107       .  S
C401        C406   1.400       .  A
C401       C1522   1.393       .  A
C401        H408   1.085       .  S
C402        C403   1.414       .  A
C402       C1521   1.394   1_455  A
C403       C1524   1.398   1_455  A
C403        C410   1.506       .  S
C404        C405   1.399       .  A
C404       C1523   1.396       .  A
C404        H409   1.083       .  S
C405        C406   1.426       .  A
C406        C407   1.512       .  S
C407        H411   1.111       .  S
C407        H412   1.109       .  S
C407        H413   1.111       .  S
C410        H414   1.107       .  S
C410        H415   1.105       .  S
C410        H416   1.111       .  S
C417        C418   1.413       .  A
C417        C422   1.396       .  A
C417        H424   1.083       .  S
C418        C419   1.411       .  A
C419        C420   1.406       .  A
C419        C426   1.506       .  S
C420        C421   1.413       .  A
C420        H425   1.084       .  S
C421        C422   1.410       .  A
C422        C423   1.510       .  S
C423        H427   1.110       .  S
C423        H428   1.111       .  S
C423        H429   1.110       .  S
C426        H430   1.108       .  S
C426        H431   1.110       .  S
C426        H432   1.111       .  S
C433        C434   1.401       .  A
C433        C438   1.410       .  A
C433        H440   1.085       .  S
C434        C435   1.413       .  A
C435        C436   1.406       .  A
C435        C442   1.506       .  S
C436        C437   1.405       .  A
C436        H441   1.084       .  S
C437        C598   1.492   1_554  S
C437        C438   1.422       .  A
C438        C999   1.506       .  S
C439        C998   1.506       .  S
C439        H443   1.110       .  S
C439        H444   1.109       .  S
C439        H445   1.110       .  S
C442        H446   1.110       .  S
C442        H447   1.109       .  S
C442        H448   1.111       .  S
C449        C450   1.406       .  A
C449        C454   1.408       .  A
C449        H456   1.084       .  S
C450        C451   1.421       .  A
C451        C452   1.412       .  A
C451        C458   1.508       .  S
C452        C453   1.403       .  A
C452        H457   1.079       .  S
C453        C454   1.413       .  A
C454        C455   1.505       .  S
C455        H459   1.111       .  S
C455        H460   1.110       .  S
C455        H461   1.108       .  S
C458        H462   1.110       .  S
C458        H463   1.109       .  S
C458        H464   1.111       .  S
C465        C466   1.412       .  A
C465        C470   1.397       .  A
C465        H472   1.084       .  S
C466        C467   1.411       .  A
C467        C468   1.404       .  A
C467        C474   1.507       .  S
C468        C469   1.412       .  A
C468        H473   1.084       .  S
C469        C470   1.411       .  A
C470        C471   1.510       .  S
C471        H475   1.111       .  S
C471        H476   1.111       .  S
C471        H477   1.109       .  S
C474        H478   1.111       .  S
C474        H479   1.108       .  S
C474        H480   1.111       .  S
C481        C482   1.393       .  A
C481        C486   1.399       .  A
C481       H1608   1.085       .  S
C482       C1122   1.464       .  S
C482        C483   1.414       .  A
C483        C484   1.398       .  A
C483        C490   1.506       .  S
C484        C485   1.400       .  A
C484        H489   1.084       .  S
C485        C486   1.426       .  A
C486        C487   1.512       .  S
C487        H491   1.111       .  S
C487        H492   1.111       .  S
C487        H493   1.109       .  S
H488       C1601   1.084   1_455  S
C490        H495   1.109       .  S
C490        H496   1.111       .  S
C490       H1614   1.108       .  S
H494       C1610   1.109       .  S
C497        C498   1.405       .  A
C497        C502   1.408       .  A
C497        H504   1.084       .  S
C498        C499   1.417       .  A
C499        C500   1.407       .  A
C499        C506   1.508       .  S
C500        C501   1.405       .  A
C500        H505   1.084       .  S
C501        C502   1.420       .  A
C502        C503   1.508       .  S
C503        H507   1.111       .  S
C503        H508   1.111       .  S
C503        H509   1.110       .  S
C506        H510   1.109       .  S
C506        H511   1.110       .  S
C506        H512   1.111       .  S
C513        C514   1.401       .  A
C513        C518   1.410       .  A
C513        H520   1.082       .  S
C514        C515   1.413       .  A
C515        C516   1.409       .  A
C515        C522   1.504       .  S
C516        C517   1.405       .  A
C516        H521   1.084       .  S
C517        C518   1.421       .  A
C518        C519   1.507       .  S
C519        H523   1.111       .  S
C519        H524   1.110       .  S
C519        H525   1.109       .  S
C522        H526   1.108   1_545  S
C522        H527   1.109       .  S
C522        H528   1.110       .  S
C529        C530   1.410       .  A
C529        C534   1.405       .  A
C529        H536   1.084   1_554  S
C530        C581   1.500   1_554  S
C530        C531   1.422       .  A
C531        C532   1.413       .  A
C531        C538   1.507       .  S
C532        C533   1.404       .  A
C532        H537   1.084       .  S
C533        C534   1.407       .  A
C534        C535   1.500   1_565  S
C535        H539   1.111   1_545  S
C535        H540   1.110   1_545  S
C535        H541   1.110       .  S
C538        H542   1.110       .  S
C538        H543   1.108       .  S
C538        H544   1.111       .  S
C545        C550   1.407       .  A
C545       C1666   1.415       .  A
C545        H552   1.085       .  S
C546        C547   1.410   1_565  A
C546       C1665   1.417   1_455  A
C547       C1108   1.404       .  A
C547        C554   1.508       .  S
C548       C1107   1.406       .  A
C548       C1669   1.416   1_455  A
C548        H553   1.083   1_556  S
C549       C1668   1.416       .  A
C549       C1110   1.410   1_545  A
C550       C1109   1.411   1_565  A
C550        C551   1.507       .  S
C551        H555   1.111       .  S
C551        H556   1.109   1_565  S
C551        H557   1.110       .  S
C554        H558   1.109       .  S
C554       H1119   1.111       .  S
C554       H1120   1.110       .  S
H559       C1114   1.111   1_554  S
H560       C1114   1.110       .  S
O561        C576   1.277       .  A
O561       Al569   1.965       .  S
C562        O572   1.270       .  A
C562        O563   1.258       .  A
C562       C2162   1.461       .  S
O563       Al565   1.869       .  S
O564        C566   1.264       .  A
O564       Al565   1.937       .  S
Al565       O573   1.950       .  S
Al565       O575   1.852       .  S
Al565       O574   1.774       .  S
C566        O579   1.257       .  A
C566       C1074   1.481   1_565  S
O567        C577   1.279       .  A
O567       Al569   1.984       .  S
O568        C581   1.266       .  A
O568       Al578   1.958       .  S
Al569       O582   1.876       .  S
Al569       O579   1.901       .  S
Al569       O574   1.765       .  S
O570        C577   1.254       .  A
O570       Al578   1.846       .  S
O571        C580   1.263       .  A
O571       Al578   1.898       .  S
O572       Al578   1.939       .  S
O573        C580   1.271       .  A
O574       Al578   1.775       .  S
O575        C576   1.259       .  A
C576       C1026   1.490       .  S
C577       C1106   1.495       .  S
C580       C1061   1.495       .  S
C581        O582   1.254       .  A
O583        C598   1.252       .  A
O583       Al591   1.877       .  S
C584        O594   1.260       .  A
C584        O585   1.274       .  A
C584        C962   1.469       .  S
O585       Al587   1.949       .  S
O586        C588   1.251       .  A
O586       Al587   1.836       .  S
Al587       O595   1.902       .  S
Al587       O597   1.948       .  S
Al587       O596   1.774       .  S
C588        O601   1.278       .  A
C588        C946   1.492       .  S
O589        C599   1.256       .  A
O589       Al591   1.912       .  S
O590        C603   1.260       .  A
O590       Al600   1.843       .  S
Al591       O604   1.973       .  S
Al591       O601   1.978       .  S
Al591       O596   1.769       .  S
O592        C599   1.262       .  A
O592       Al600   1.937       .  S
O593        C602   1.267       .  A
O593       Al600   1.945       .  S
O594       Al600   1.865       .  S
O595        C602   1.263       .  A
O596       Al600   1.775       .  S
O597        C598   1.267       .  A
C599       C1013   1.487       .  S
C602       C1058   1.493       .  S
C603        O604   1.280       .  A
C603        C978   1.491       .  S
O605        C620   1.252       .  A
O605       Al613   1.868       .  S
C606        O616   1.263       .  A
C606        O607   1.275       .  A
C606       C1029   1.482       .  S
O607       Al609   1.951       .  S
O608        C610   1.251       .  A
O608       Al609   1.842       .  S
Al609       O617   1.917       .  S
Al609       O619   1.972       .  S
Al609       O618   1.777       .  S
C610        O623   1.277       .  A
C610        C882   1.477       .  S
O611        C621   1.258       .  A
O611       Al613   1.917       .  S
O612        C625   1.257       .  A
O612       Al622   1.841       .  S
Al613       O626   1.960       .  S
Al613       O623   1.973       .  S
Al613       O618   1.765       .  S
O614        C621   1.260       .  A
O614       Al622   1.931       .  S
O615        C624   1.264       .  A
O615       Al622   1.929       .  S
O616       Al622   1.868       .  S
O617        C624   1.266       .  A
O618       Al622   1.776       .  S
O619        C620   1.269       .  A
C620        C914   1.511       .  S
C621        C930   1.488   1_565  S
C624        C898   1.501       .  S
C625        O626   1.279       .  A
C625       C1045   1.473       .  S
O627        C642   1.278       .  A
O627       Al635   1.952       .  S
C628        O638   1.273       .  A
C628        O629   1.263       .  A
C628        C981   1.479       .  S
O629       Al631   1.877       .  S
O630        C632   1.261       .  A
O630       Al631   1.936       .  S
Al631       O639   1.940       .  S
Al631       O641   1.845       .  S
Al631       O640   1.776       .  S
C632        O645   1.257       .  A
C632        C834   1.486       .  S
O633        C643   1.276       .  A
O633       Al635   1.966       .  S
O634        C647   1.267       .  A
O634       Al644   1.953       .  S
Al635       O648   1.874       .  S
Al635       O645   1.911       .  S
Al635       O640   1.766       .  S
O636        C643   1.252       .  A
O636       Al644   1.849       .  S
O637        C646   1.262       .  A
O637       Al644   1.908       .  S
O638       Al644   1.941       .  S
O639        C646   1.269       .  A
O640       Al644   1.773       .  S
O641        C642   1.257       .  A
C642        C965   1.474       .  S
C643        C869   1.480       .  S
C646        C901   1.501       .  S
C647        O648   1.251       .  A
C647        C850   1.492       .  S
O649        C664   1.281       .  A
O649       Al657   1.976       .  S
C650        O660   1.274       .  A
C650        O651   1.259       .  A
C650       C1922   1.480       .  S
O651       Al653   1.867       .  S
O652        C654   1.262       .  A
O652       Al653   1.940       .  S
Al653       O661   1.961       .  S
Al653       O663   1.830       .  S
Al653       O662   1.776       .  S
C654        O667   1.257       .  A
C654        C853   1.488       .  S
O655        C665   1.280       .  A
O655       Al657   1.989       .  S
O656        C669   1.268       .  A
Al657       O667   1.914       .  S
Al657       O662   1.769       .  S
O658        C665   1.253       .  A
O658       Al666   1.844       .  S
O659        C668   1.262       .  A
O659       Al666   1.903       .  S
O660       Al666   1.934       .  S
O661        C668   1.271       .  A
O662       Al666   1.767       .  S
O663        C664   1.258       .  A
C664        C789   1.486       .  S
C668        C818   1.503       .  S
C669        O670   1.253   1_556  A
C669        C837   1.493       .  S
O671       Al679   1.869       .  S
C672        O682   1.260       .  A
C672        O673   1.276       .  A
C672       C1874   1.461       .  S
O673       Al675   1.953       .  S
O674        C676   1.252       .  A
O674       Al675   1.845       .  S
Al675       O683   1.914       .  S
Al675       O684   1.778       .  S
C676        O689   1.277       .  A
C676       C1109   1.493       .  S
O677        C687   1.259       .  A
O677       Al679   1.925       .  S
O678        C691   1.263       .  A
O678       Al688   1.849       .  S
Al679       O692   1.967       .  S
Al679       O689   1.973       .  S
Al679       O684   1.774       .  S
O680        C687   1.258       .  A
O680       Al688   1.921       .  S
O681        C690   1.262       .  A
O681       Al688   1.937       .  S
O682       Al688   1.862       .  S
O683        C690   1.262       .  A
O684       Al688   1.782       .  S
O685        C686   1.268       .  A
C686        C933   1.493       .  S
C687        C917   1.492   1_545  S
C690        C821   1.502       .  S
C691        O692   1.281       .  A
C691        C773   1.489       .  S
O693        C708   1.253       .  A
O693       Al701   1.876       .  S
C694        O704   1.259       .  A
C694        O695   1.275       .  A
C694        C786   1.472       .  S
O695       Al697   1.945       .  S
O696        C698   1.250       .  A
O696       Al697   1.841       .  S
Al697       O705   1.912       .  S
Al697       O707   1.953       .  S
Al697       O706   1.772       .  S
C698        O711   1.276       .  A
C698        C866   1.482       .  S
O699        C709   1.259       .  A
O699       Al701   1.917       .  S
O700        C713   1.256       .  A
O700       Al710   1.842       .  S
Al701       O714   1.970       .  S
Al701       O711   1.975       .  S
Al701       O706   1.769       .  S
O702        C709   1.262       .  A
O702       Al710   1.937       .  S
O703        C712   1.264       .  A
O703       Al710   1.935       .  S
O704       Al710   1.855       .  S
O705        C712   1.264       .  A
O706       Al710   1.772       .  S
O707        C708   1.269       .  A
C708       C1010   1.491       .  S
C709        C994   1.487       .  S
C712        C741   1.493       .  S
C713        O714   1.279       .  A
C713        C805   1.469       .  S
O715        C730   1.277       .  A
O715       Al723   1.962       .  S
C716        O726   1.273       .  A
C716        O717   1.259       .  A
C716        C770   1.472       .  S
O717       Al719   1.872       .  S
O718        C720   1.264       .  A
O718       Al719   1.937       .  S
Al719       O727   1.953       .  S
Al719       O729   1.856       .  S
Al719       O728   1.772       .  S
C720        O733   1.258       .  A
C720       C1093   1.478   1_545  S
O721        C731   1.277       .  A
O721       Al723   1.981       .  S
O722        C735   1.270       .  A
O722       Al732   1.963       .  S
Al723       O736   1.870       .  S
Al723       O733   1.901       .  S
Al723       O728   1.768       .  S
O724        C731   1.250       .  A
O724       Al732   1.847       .  S
O725        C734   1.261       .  A
O725       Al732   1.896       .  S
O726       Al732   1.948       .  S
O727        C734   1.271       .  A
O728       Al732   1.771       .  S
O729        C730   1.258       .  A
C730        C757   1.478       .  S
C731        C885   1.480       .  S
C734        C738   1.495       .  S
C735        O736   1.251       .  A
C735       C1077   1.494       .  S
C737        C738   1.405       .  A
C737        C742   1.409       .  A
C737        H744   1.084       .  S
C738        C739   1.421       .  A
C739        C740   1.408       .  A
C739        C746   1.508       .  S
C740        C741   1.404       .  A
C740        H745   1.084       .  S
C741        C742   1.418       .  A
C742        C743   1.508       .  S
C743        H747   1.111       .  S
C743        H748   1.109       .  S
C743        H749   1.111       .  S
C746        H750   1.111       .  S
C746        H751   1.110       .  S
C746        H752   1.111       .  S
C753        C754   1.395   1_455  A
C753        C758   1.402       .  A
C753        H760   1.084   1_455  S
C754       C1792   1.464       .  S
C754        C755   1.417   1_655  A
C755        C756   1.400       .  A
C755       C1882   1.509   1_455  S
C756        C757   1.401       .  A
C756        H761   1.085       .  S
C757        C758   1.422       .  A
C758        C759   1.510       .  S
C759        H763   1.111       .  S
C759        H764   1.109       .  S
C759        H765   1.111       .  S
C762       C1875   1.509       .  S
C762        H766   1.108       .  S
C762        H767   1.106       .  S
C762        H768   1.109       .  S
C769        C770   1.405       .  A
C769        C774   1.403       .  A
C769        H776   1.079       .  S
C770        C771   1.404       .  A
C771        C772   1.399       .  A
C771        C778   1.508       .  S
C772        C773   1.415       .  A
C772        H777   1.083       .  S
C773        C774   1.415       .  A
C774        C775   1.507       .  S
C775        H779   1.111       .  S
C775        H780   1.110       .  S
C775        H781   1.110       .  S
C778        H782   1.109       .  S
C778        H783   1.111       .  S
C778        H784   1.111       .  S
C785        C786   1.410       .  A
C785        C790   1.403       .  A
C785        H792   1.085       .  S
C786        C787   1.405       .  A
C787        C788   1.393       .  A
C787        C794   1.510       .  S
C788        C789   1.415       .  A
C788        H793   1.083       .  S
C789        C790   1.412       .  A
C790        C791   1.506       .  S
C791        H795   1.111       .  S
C791        H796   1.110       .  S
C791        H797   1.106       .  S
C794        H798   1.111       .  S
C794        H799   1.109       .  S
C794        H800   1.111       .  S
C801        C802   1.401   1_455  A
C801        C806   1.392       .  A
C801        H808   1.083       .  S
C802       C1770   1.484       .  S
C802        C803   1.425       .  A
C803        C804   1.406   1_655  A
C803       C1930   1.508       .  S
C804        C805   1.397       .  A
C804        H809   1.084       .  S
C805        C806   1.417       .  A
C806        C807   1.512       .  S
C807        H811   1.111       .  S
C807        H812   1.108       .  S
C807        H813   1.109       .  S
C810       C1923   1.508       .  S
C810        H814   1.110       .  S
C810        H815   1.109       .  S
C810        H816   1.111       .  S
C817        C818   1.408       .  A
C817        C822   1.413       .  A
C817        H824   1.083       .  S
C818        C819   1.422       .  A
C819        C820   1.408       .  A
C820        C821   1.405       .  A
C820        H825   1.083       .  S
C821        C822   1.421       .  A
C822        C823   1.508       .  S
C823        H827   1.111       .  S
C823        H828   1.109       .  S
C823        H829   1.110       .  S
C826        H830   1.110       .  S
C826        H832   1.111       .  S
C833        C834   1.401       .  A
C833        C838   1.410       .  A
C833        H840   1.084       .  S
C834        C835   1.414       .  A
C835        C836   1.407       .  A
C835        C842   1.504       .  S
C836        C837   1.405       .  A
C836        H841   1.084       .  S
C837        C838   1.422       .  A
C838        C839   1.506       .  S
C839        H843   1.110       .  S
C839        H844   1.110       .  S
C839        H845   1.109       .  S
C842        H846   1.110       .  S
C842        H847   1.110       .  S
C842        H848   1.111       .  S
C849        C850   1.404       .  A
C849        C854   1.407       .  A
C849        H856   1.084       .  S
C850        C851   1.422       .  A
C851        C852   1.412       .  A
C851        C858   1.509       .  S
C852        C853   1.401       .  A
C852        H857   1.082       .  S
C853        C854   1.413       .  A
C854        C855   1.503       .  S
C855        H859   1.111       .  S
C855        H860   1.109       .  S
C855        H861   1.110       .  S
C858        H862   1.108       .  S
C858        H863   1.110       .  S
C858        H864   1.111       .  S
C865        C866   1.400       .  A
C865        C870   1.406       .  A
C865        H872   1.084       .  S
C866        C867   1.423       .  A
C867        C868   1.403       .  A
C867        C874   1.510       .  S
C868        C869   1.398       .  A
C868        H873   1.085       .  S
C869        C870   1.422       .  A
C870        C871   1.508       .  S
C871        H875   1.108       .  S
C871        H876   1.107       .  S
C871        H877   1.110       .  S
C874        H878   1.110       .  S
C874        H879   1.108       .  S
C874        H880   1.110       .  S
C881        C882   1.399   1_545  A
C881        C886   1.405       .  A
C881        H888   1.085       .  S
C882        C883   1.419       .  A
C883        C884   1.406       .  A
C883        C890   1.507       .  S
C884        C885   1.400   1_565  A
C884        H889   1.085       .  S
C885        C886   1.420       .  A
C886        C887   1.507       .  S
C887        H891   1.111       .  S
C887        H892   1.107       .  S
C887        H893   1.111       .  S
C890        H894   1.110       .  S
C890        H895   1.107       .  S
C890        H896   1.108       .  S
C897        C898   1.408       .  A
C897        C902   1.410       .  A
C897        H904   1.084       .  S
C898        C899   1.423       .  A
C899        C900   1.405       .  A
C899        C906   1.510       .  S
C900        C901   1.406       .  A
C900        H905   1.084       .  S
C901        C902   1.421       .  A
C902        C903   1.508       .  S
C903        H907   1.111       .  S
C903        H908   1.110       .  S
C903        H909   1.110       .  S
C906        H910   1.110       .  S
C906        H911   1.110       .  S
C906        H912   1.111       .  S
C913        C914   1.413       .  A
C913        C918   1.403       .  A
C913        H920   1.083       .  S
C914        C915   1.421       .  A
C915        C916   1.420       .  A
C915        C922   1.505       .  S
C916        C917   1.408       .  A
C916        H921   1.084       .  S
C917        C918   1.410       .  A
C918        C919   1.508   1_565  S
C919        H923   1.109       .  S
C919        H924   1.104       .  S
C919        H925   1.111       .  S
C922        H926   1.110       .  S
C922        H927   1.111       .  S
C922        H928   1.111       .  S
C929        C930   1.402       .  A
C929        C934   1.412       .  A
C929        H936   1.085       .  S
C930        C931   1.414       .  A
C931        C932   1.407       .  A
C931        C938   1.504       .  S
C932        C933   1.404       .  A
C932        H937   1.085       .  S
C933        C934   1.422       .  A
C934        C935   1.507       .  S
C935        H939   1.111       .  S
C935        H940   1.109       .  S
C935        H941   1.110       .  S
C938        H942   1.110       .  S
C938        H943   1.110   1_545  S
C938        H944   1.111       .  S
C945        C946   1.416   1_655  A
C945       C2070   1.405       .  A
C945        H952   1.084       .  S
C946        C947   1.409       .  A
C947       C2068   1.406   1_556  A
C947        C954   1.505       .  S
C948       C2067   1.405   1_554  A
C948        C949   1.416       .  A
C948        H953   1.084       .  S
C949        C950   1.411   1_554  A
C950       C2065   1.405       .  A
C950        C951   1.507       .  S
C951       H2075   1.111       .  S
C951        H956   1.110       .  S
C954        H958   1.108   1_556  S
C954        H959   1.110       .  S
C954       H2080   1.107   1_556  S
H955       C2071   1.111       .  S
H960       C2074   1.108   1_554  S
C961       C2082   1.394       .  A
C961        C966   1.400       .  A
C961        H968   1.085       .  S
C962       C2081   1.392   1_455  A
C962        C963   1.415   1_455  A
C963       C2084   1.400       .  A
C963        C970   1.506   1_655  S
C964       C2083   1.396       .  A
C964        C965   1.398       .  A
C964        H969   1.083       .  S
C965        C966   1.424       .  A
C966        C967   1.511       .  S
C967        H971   1.111       .  S
C967        H972   1.109       .  S
C967        H973   1.111       .  S
C970        H974   1.110       .  S
C970        H975   1.107       .  S
C970        H976   1.111       .  S
C977        C978   1.413       .  A
C977        C982   1.396       .  A
C977        H984   1.081       .  S
C978        C979   1.414       .  A
C979        C980   1.406       .  A
C979        C986   1.505       .  S
C980        C981   1.409       .  A
C980        H985   1.084       .  S
C981        C982   1.410       .  A
C982        C983   1.510       .  S
C983        H987   1.109       .  S
C983        H988   1.111       .  S
C983        H989   1.111       .  S
C986        H990   1.107       .  S
C986        H991   1.109       .  S
C986        H992   1.111       .  S
C993        C994   1.402       .  A
C993        C998   1.412       .  A
C993       H1000   1.085       .  S
C994        C995   1.414       .  A
C995        C996   1.408       .  A
C995       C1002   1.506       .  S
C996        C997   1.406       .  A
C996       H1001   1.085       .  S
C997        C998   1.422       .  A
C999       H1003   1.110       .  S
C999       H1004   1.109   1_554  S
C999       H1005   1.110   1_554  S
C1002      H1006   1.110       .  S
C1002      H1007   1.109       .  S
C1002      H1008   1.111       .  S
C1009      C1010   1.405       .  A
C1009      C1014   1.406       .  A
C1009      H1016   1.085       .  S
C1010      C1011   1.421       .  A
C1011      C1012   1.411       .  A
C1011      C1018   1.508       .  S
C1012      C1013   1.402       .  A
C1012      H1017   1.081       .  S
C1013      C1014   1.412       .  A
C1014      C1015   1.503       .  S
C1015      H1019   1.111       .  S
C1015      H1020   1.110       .  S
C1015      H1021   1.107       .  S
C1018      H1022   1.110       .  S
C1018      H1023   1.108       .  S
C1018      H1024   1.111       .  S
C1025      C1026   1.413       .  A
C1025      C1030   1.399       .  A
C1025      H1032   1.083       .  S
C1026      C1027   1.414       .  A
C1027      C1028   1.404       .  A
C1027      C1034   1.507       .  S
C1028      C1029   1.410       .  A
C1028      H1033   1.084       .  S
C1029      C1030   1.411       .  A
C1030      C1031   1.510       .  S
C1031      H1035   1.111       .  S
C1031      H1036   1.111       .  S
C1031      H1037   1.109       .  S
C1034      H1038   1.111       .  S
C1034      H1039   1.108       .  S
C1034      H1040   1.111       .  S
C1041      C1042   1.393       .  A
C1041      C1046   1.399       .  A
C1041      H2168   1.085       .  S
C1042      C1682   1.458       .  S
C1042      C1043   1.417       .  A
C1043      C1044   1.396       .  A
C1043      C1050   1.508       .  S
C1044      C1045   1.397       .  A
C1044      H1049   1.083       .  S
C1045      C1046   1.423       .  A
C1046      C1047   1.510       .  S
C1047      H1051   1.111       .  S
C1047      H1052   1.111       .  S
C1047      H1053   1.107       .  S
H1048      C2161   1.084   1_455  S
C1050      H2174   1.109       .  S
C1050      H1055   1.104       .  S
C1050      H1056   1.110       .  S
H1054      C2170   1.109       .  S
C1057      C1058   1.405       .  A
C1057      C1062   1.406       .  A
C1057      H1064   1.084       .  S
C1058      C1059   1.417       .  A
C1059      C1060   1.409       .  A
C1059      C1066   1.507       .  S
C1060      C1061   1.407       .  A
C1060      H1065   1.084       .  S
C1061      C1062   1.420       .  A
C1062      C1063   1.509       .  S
C1063      H1067   1.111       .  S
C1063      H1068   1.110       .  S
C1063      H1069   1.110       .  S
C1066      H1070   1.109       .  S
C1066      H1071   1.109       .  S
C1066      H1072   1.111       .  S
C1073      C1074   1.398       .  A
C1073      C1078   1.408       .  A
C1073      H1080   1.083       .  S
C1074      C1075   1.412       .  A
C1075      C1076   1.407       .  A
C1075      C1082   1.504       .  S
C1076      C1077   1.406       .  A
C1076      H1081   1.084       .  S
C1077      C1078   1.425       .  A
C1078      C1079   1.510       .  S
C1079      H1083   1.111       .  S
C1079      H1084   1.108       .  S
C1079      H1085   1.110       .  S
C1082      H1086   1.109   1_545  S
C1082      H1087   1.110       .  S
C1082      H1088   1.111       .  S
C1089      C1090   1.411       .  A
C1089      C1094   1.404       .  A
C1089      H1096   1.084       .  S
C1090      C1091   1.420       .  A
C1091      C1092   1.409       .  A
C1091      C1098   1.507       .  S
C1092      C1093   1.403       .  A
C1092      H1097   1.084       .  S
C1093      C1094   1.406       .  A
C1094      C1095   1.502       .  S
C1095      H1099   1.111       .  S
C1095      H1100   1.110       .  S
C1095      H1101   1.110   1_565  S
C1098      H1102   1.110       .  S
C1098      H1103   1.108       .  S
C1098      H1104   1.111       .  S
C1105      C2226   1.416       .  A
C1105      C1110   1.406       .  A
C1105      H1112   1.084       .  S
C1106      C2225   1.416   1_455  A
C1106      C1107   1.411   1_565  A
C1107      C1114   1.508       .  S
C1108      C2229   1.416   1_455  A
C1108      H1113   1.084       .  S
C1109      C2228   1.414       .  A
C1110      C1111   1.507       .  S
C1111      H1115   1.111       .  S
C1111      H1116   1.108       .  S
C1111      H1117   1.110       .  S
C1114      H1118   1.108       .  S
O1121      C1136   1.279       .  A
O1121     Al1129   1.967       .  S
C1122      O1132   1.272       .  A
C1122      O1123   1.260       .  A
O1123     Al1125   1.868       .  S
O1124      C1126   1.264       .  A
O1124     Al1125   1.942       .  S
Al1125     O1133   1.946       .  S
Al1125     O1135   1.851       .  S
Al1125     O1134   1.774       .  S
C1126      O1139   1.257       .  A
C1126      C1634   1.486   1_565  S
O1127      C1137   1.277       .  A
O1127     Al1129   1.977       .  S
O1128      C1141   1.267       .  A
O1128     Al1138   1.957       .  S
Al1129     O1142   1.874       .  S
Al1129     O1139   1.909       .  S
Al1129     O1134   1.765       .  S
O1130      C1137   1.254       .  A
O1130     Al1138   1.849       .  S
O1131      C1140   1.263       .  A
O1131     Al1138   1.904       .  S
O1132     Al1138   1.942       .  S
O1133      C1140   1.270       .  A
O1134     Al1138   1.773       .  S
O1135      C1136   1.260       .  A
C1136      C1586   1.489       .  S
C1137      C1666   1.493       .  S
C1140      C1621   1.499       .  S
C1141      O1142   1.254       .  A
C1141      C2210   1.501       .  S
O1143      C1158   1.252       .  A
O1143     Al1151   1.870       .  S
C1144      O1154   1.260       .  A
C1144      O1145   1.273       .  A
C1144      C1522   1.461       .  S
O1145     Al1147   1.947       .  S
O1146      C1148   1.252       .  A
O1146     Al1147   1.839       .  S
Al1147     O1155   1.906       .  S
Al1147     O1157   1.949       .  S
Al1147     O1156   1.776       .  S
C1148      O1161   1.281       .  A
C1148      C1506   1.498       .  S
O1149      C1159   1.257       .  A
O1149     Al1151   1.916       .  S
O1150      C1163   1.260       .  A
O1150     Al1160   1.842       .  S
Al1151     O1164   1.983       .  S
Al1151     O1161   1.991       .  S
Al1151     O1156   1.769       .  S
O1152      C1159   1.261       .  A
O1152     Al1160   1.934       .  S
O1153      C1162   1.265       .  A
O1153     Al1160   1.940       .  S
O1154     Al1160   1.861       .  S
O1155      C1162   1.263       .  A
O1156     Al1160   1.775       .  S
O1157      C1158   1.267       .  A
C1158      C2117   1.491       .  S
C1159      C1573   1.488       .  S
C1162      C1618   1.498       .  S
C1163      O1164   1.282       .  A
C1163      C1538   1.495       .  S
O1165      C1180   1.252       .  A
O1165     Al1173   1.866       .  S
C1166      O1176   1.263       .  A
C1166      O1167   1.275       .  A
C1166      C1589   1.479       .  S
O1167     Al1169   1.949       .  S
O1168      C1170   1.250       .  A
O1168     Al1169   1.834       .  S
Al1169     O1177   1.913       .  S
Al1169     O1179   1.963       .  S
Al1169     O1178   1.775       .  S
C1170      O1183   1.276       .  A
C1170      C1442   1.477       .  S
O1171      C1181   1.257       .  A
O1171     Al1173   1.917       .  S
O1172      C1185   1.256       .  A
O1172     Al1182   1.834       .  S
Al1173     O1186   1.954       .  S
Al1173     O1183   1.965       .  S
Al1173     O1178   1.766       .  S
O1174      C1181   1.260       .  A
O1174     Al1182   1.930       .  S
O1175      C1184   1.265       .  A
O1175     Al1182   1.933       .  S
O1176     Al1182   1.866       .  S
O1177      C1184   1.265       .  A
O1178     Al1182   1.775       .  S
O1179      C1180   1.267       .  A
C1180      C1474   1.504       .  S
C1181      C1490   1.487   1_565  S
C1184      C1458   1.500       .  S
C1185      O1186   1.278       .  A
C1185      C1605   1.469       .  S
O1187      C1202   1.278       .  A
O1187     Al1195   1.959       .  S
C1188      O1198   1.273       .  A
C1188      O1189   1.260       .  A
C1188      C1541   1.481       .  S
O1189     Al1191   1.874       .  S
O1190      C1192   1.262       .  A
O1190     Al1191   1.934       .  S
Al1191     O1199   1.944       .  S
Al1191     O1201   1.846       .  S
Al1191     O1200   1.774       .  S
C1192      O1205   1.257       .  A
C1192      C1394   1.480       .  S
O1193      C1203   1.277       .  A
O1193     Al1195   1.975       .  S
O1194      C1207   1.269       .  A
O1194     Al1204   1.961       .  S
Al1195     O1208   1.877       .  S
Al1195     O1205   1.904       .  S
Al1195     O1200   1.766       .  S
O1196      C1203   1.251       .  A
O1196     Al1204   1.846       .  S
O1197      C1206   1.262       .  A
O1197     Al1204   1.903       .  S
O1198     Al1204   1.948       .  S
O1199      C1206   1.271       .  A
O1200     Al1204   1.771       .  S
O1201      C1202   1.256       .  A
C1202      C1525   1.478       .  S
C1203      C1429   1.481       .  S
C1206      C1461   1.501       .  S
C1207      O1208   1.251       .  A
C1207      C1410   1.494       .  S
O1209      C1224   1.281       .  A
O1209     Al1217   1.972       .  S
C1210      O1220   1.277       .  A
C1210      O1211   1.258       .  A
O1211     Al1213   1.859       .  S
O1212      C1214   1.261       .  A
O1212     Al1213   1.936       .  S
Al1213     O1221   1.948       .  S
Al1213     O1223   1.831       .  S
Al1213     O1222   1.775       .  S
C1214      O1227   1.257       .  A
C1214      C1413   1.489       .  S
O1215      C1225   1.278       .  A
O1215     Al1217   1.977       .  S
O1216      C1229   1.267       .  A
O1216     Al1786   1.945       .  S
Al1217     O1790   1.878       .  S
Al1217     O1227   1.919       .  S
Al1217     O1222   1.768       .  S
O1218      C1225   1.252       .  A
O1218     Al1226   1.841       .  S
O1219      C1228   1.261       .  A
O1219     Al1226   1.907       .  S
O1220     Al1226   1.943       .  S
O1221      C1228   1.269       .  A
O1222     Al1226   1.770       .  S
O1223      C1224   1.259       .  A
C1224      C1349   1.485       .  S
C1225      C2069   1.493       .  S
Al1226     O1776   1.946   1_554  S
C1228      C1378   1.505       .  S
C1229      O1230   1.252       .  A
C1229      C1397   1.488       .  S
O1230     Al1777   1.875       .  S
O1231      C1806   1.252   1_554  A
O1231     Al1239   1.867       .  S
C1232      O1242   1.260       .  A
C1232      O1233   1.276       .  A
O1233     Al1235   1.953       .  S
O1234      C1236   1.252       .  A
O1234     Al1235   1.840       .  S
Al1235     O1243   1.915       .  S
Al1235     O1805   1.950   1_554  S
Al1235     O1244   1.776       .  S
C1236      O1249   1.278       .  A
C1236      C1669   1.495   1_554  S
O1237      C1247   1.259       .  A
O1237     Al1239   1.921       .  S
O1238      C1251   1.263       .  A
O1238     Al1248   1.849       .  S
Al1239     O1252   1.968       .  S
Al1239     O1249   1.979       .  S
Al1239     O1244   1.769       .  S
O1240      C1247   1.257       .  A
O1240     Al1248   1.921       .  S
O1241      C1250   1.263       .  A
O1241     Al1248   1.935       .  S
O1242     Al1248   1.865       .  S
O1243      C1250   1.263       .  A
O1244     Al1248   1.779       .  S
O1245      C1246   1.267       .  A
O1245     Al1795   1.946       .  S
C1246      O1791   1.253       .  A
C1246      C1493   1.495       .  S
C1247      C1477   1.487   1_545  S
C1250      C1381   1.505       .  S
C1251      O1252   1.281       .  A
C1251      C1333   1.490       .  S
O1253      C1268   1.254       .  A
O1253     Al1261   1.872       .  S
C1254      O1264   1.259       .  A
C1254      O1255   1.273       .  A
C1254      C1346   1.472       .  S
O1255     Al1257   1.942       .  S
O1256      C1258   1.249       .  A
O1256     Al1257   1.837       .  S
Al1257     O1265   1.902       .  S
Al1257     O1267   1.954       .  S
Al1257     O1266   1.774       .  S
C1258      O1271   1.277       .  A
C1258      C1426   1.482       .  S
O1259      C1269   1.258       .  A
O1259     Al1261   1.911       .  S
O1260      C1273   1.256       .  A
O1260     Al1270   1.842       .  S
Al1261     O1274   1.975       .  S
Al1261     O1271   1.978       .  S
Al1261     O1266   1.771       .  S
O1262      C1269   1.261       .  A
O1262     Al1270   1.935       .  S
O1263      C1272   1.265       .  A
O1263     Al1270   1.936       .  S
O1264     Al1270   1.860       .  S
O1265      C1272   1.262       .  A
O1266     Al1270   1.773       .  S
O1267      C1268   1.268       .  A
C1268      C1570   1.495       .  S
C1269      C1554   1.485       .  S
C1272      C1301   1.485       .  S
C1273      O1274   1.280       .  A
C1273      C1365   1.474       .  S
O1275      C1290   1.275       .  A
O1275     Al1283   1.947       .  S
C1276      O1286   1.270       .  A
C1276      O1277   1.262       .  A
C1276      C1330   1.476       .  S
O1277     Al1279   1.882       .  S
O1278      C1280   1.266       .  A
O1278     Al1279   1.943       .  S
Al1279     O1287   1.951       .  S
Al1279     O1289   1.864       .  S
Al1279     O1288   1.770       .  S
C1280      O1293   1.257       .  A
C1280      C1653   1.479   1_545  S
O1281      C1291   1.276       .  A
O1281     Al1283   1.972       .  S
O1282      C1295   1.269       .  A
O1282     Al1292   1.962       .  S
Al1283     O1296   1.872       .  S
Al1283     O1293   1.894       .  S
Al1283     O1288   1.768       .  S
O1284      C1291   1.250       .  A
O1284     Al1292   1.842       .  S
O1285      C1294   1.262       .  A
O1285     Al1292   1.894       .  S
O1286     Al1292   1.941       .  S
O1287      C1294   1.271       .  A
O1288     Al1292   1.772       .  S
O1289      C1290   1.259       .  A
C1290      C1317   1.473       .  S
C1291      C1445   1.479       .  S
C1294      C1298   1.488       .  S
C1295      O1296   1.250       .  A
C1295      C1637   1.490       .  S
C1297      C1298   1.404       .  A
C1297      C1302   1.408       .  A
C1297      H1304   1.084       .  S
C1298      C1299   1.419       .  A
C1299      C1300   1.405       .  A
C1299      C1306   1.509       .  S
C1300      C1301   1.403       .  A
C1300      H1305   1.084       .  S
C1301      C1302   1.416       .  A
C1302      C1303   1.507       .  S
C1303      H1307   1.111       .  S
C1303      H1308   1.109       .  S
C1303      H1309   1.111       .  S
C1306      H1310   1.111       .  S
C1306      H1311   1.109       .  S
C1306      H1312   1.111       .  S
C1313      C1314   1.397       .  A
C1313      C1318   1.402       .  A
C1313      H1320   1.085       .  S
C1314      C1315   1.417       .  A
C1315      C1316   1.397       .  A
C1316      C1317   1.399       .  A
C1316      H1321   1.085       .  S
C1317      C1318   1.419       .  A
C1318      C1319   1.509       .  S
C1319      H1323   1.111       .  S
C1319      H1324   1.108       .  S
C1319      H1325   1.111       .  S
C1322      H1326   1.107   1_655  S
C1322      H1327   1.107       .  S
C1322      H1328   1.108       .  S
C1329      C1330   1.404       .  A
C1329      C1334   1.403       .  A
C1329      H1336   1.075       .  S
C1330      C1331   1.407       .  A
C1331      C1332   1.400       .  A
C1331      C1338   1.508       .  S
C1332      C1333   1.415       .  A
C1332      H1337   1.083       .  S
C1333      C1334   1.414       .  A
C1334      C1335   1.507       .  S
C1335      H1339   1.110       .  S
C1335      H1340   1.110       .  S
C1335      H1341   1.110       .  S
C1338      H1342   1.109       .  S
C1338      H1343   1.110       .  S
C1338      H1344   1.111       .  S
C1345      C1346   1.409       .  A
C1345      C1350   1.403       .  A
C1345      H1352   1.084       .  S
C1346      C1347   1.406       .  A
C1347      C1348   1.394       .  A
C1347      C1354   1.510       .  S
C1348      C1349   1.414       .  A
C1348      H1353   1.083       .  S
C1349      C1350   1.412       .  A
C1350      C1351   1.506       .  S
C1351      H1355   1.111       .  S
C1351      H1356   1.109       .  S
C1351      H1357   1.106       .  S
C1354      H1358   1.111       .  S
C1354      H1359   1.109       .  S
C1354      H1360   1.111       .  S
C1361      C1362   1.401       .  A
C1361      C1366   1.393       .  A
C1361      H1368   1.084       .  S
C1362      C1363   1.425       .  A
C1363      C1364   1.408       .  A
C1364      C1365   1.399       .  A
C1364      H1369   1.084       .  S
C1365      C1366   1.419       .  A
C1366      C1367   1.512       .  S
C1367      H1371   1.111       .  S
C1367      H1372   1.108       .  S
C1367      H1373   1.109       .  S
C1370      H1374   1.110       .  S
C1370      H1375   1.109       .  S
C1370      H1376   1.111       .  S
C1377      C1378   1.407       .  A
C1377      C1382   1.409       .  A
C1377      H1384   1.083       .  S
C1378      C1379   1.422       .  A
C1379      C1380   1.410       .  A
C1379      C1946   1.508   1_554  S
C1380      C1381   1.408       .  A
C1380      H1385   1.083       .  S
C1381      C1382   1.423       .  A
C1382      C1383   1.509       .  S
C1383      H1387   1.111       .  S
C1383      H1388   1.110       .  S
C1383      H1389   1.111       .  S
C1386      C1939   1.509       .  S
C1386      H1390   1.110       .  S
C1386      H1951   1.110       .  S
C1386      H1392   1.111       .  S
H1391      C1946   1.111       .  S
C1393      C1394   1.400       .  A
C1393      C1398   1.409       .  A
C1393      H1400   1.085       .  S
C1394      C1395   1.412       .  A
C1395      C1396   1.404       .  A
C1395      C1402   1.504       .  S
C1396      C1397   1.404       .  A
C1396      H1401   1.084       .  S
C1397      C1398   1.422       .  A
C1398      C1399   1.506       .  S
C1399      H1403   1.110       .  S
C1399      H1404   1.110       .  S
C1399      H1405   1.109       .  S
C1402      H1406   1.110       .  S
C1402      H1407   1.110       .  S
C1402      H1408   1.111       .  S
C1409      C1410   1.404       .  A
C1409      C1414   1.406       .  A
C1409      H1416   1.084       .  S
C1410      C1411   1.423       .  A
C1411      C1412   1.414       .  A
C1411      C1418   1.508       .  S
C1412      C1413   1.402       .  A
C1412      H1417   1.083       .  S
C1413      C1414   1.413       .  A
C1414      C1415   1.502       .  S
C1415      H1419   1.111       .  S
C1415      H1420   1.108       .  S
C1415      H1421   1.109       .  S
C1418      H1422   1.108       .  S
C1418      H1423   1.110       .  S
C1418      H1424   1.111       .  S
C1425      C1426   1.399       .  A
C1425      C1430   1.406       .  A
C1425      H1432   1.084       .  S
C1426      C1427   1.424       .  A
C1427      C1428   1.404       .  A
C1427      C1434   1.510       .  S
C1428      C1429   1.398       .  A
C1428      H1433   1.084       .  S
C1429      C1430   1.423       .  A
C1430      C1431   1.509       .  S
C1431      H1435   1.110       .  S
C1431      H1436   1.108       .  S
C1431      H1437   1.110       .  S
C1434      H1438   1.110       .  S
C1434      H1439   1.108       .  S
C1434      H1440   1.108       .  S
C1441      C1442   1.398   1_545  A
C1441      C1446   1.402       .  A
C1441      H1448   1.084       .  S
C1442      C1443   1.423       .  A
C1443      C1444   1.403       .  A
C1443      C1450   1.510       .  S
C1444      C1445   1.398   1_565  A
C1444      H1449   1.084       .  S
C1445      C1446   1.423       .  A
C1446      C1447   1.509       .  S
C1447      H1451   1.111       .  S
C1447      H1452   1.108       .  S
C1447      H1453   1.110       .  S
C1450      H1454   1.110       .  S
C1450      H1455   1.108       .  S
C1450      H1456   1.108       .  S
C1457      C1458   1.407       .  A
C1457      C1462   1.409       .  A
C1457      H1464   1.084       .  S
C1458      C1459   1.423       .  A
C1459      C1460   1.405       .  A
C1459      C1466   1.510       .  S
C1460      C1461   1.406       .  A
C1460      H1465   1.084       .  S
C1461      C1462   1.422       .  A
C1462      C1463   1.508       .  S
C1463      H1467   1.111       .  S
C1463      H1468   1.110       .  S
C1463      H1469   1.110       .  S
C1466      H1470   1.110       .  S
C1466      H1471   1.109       .  S
C1466      H1472   1.111       .  S
C1473      C1474   1.411       .  A
C1473      C1478   1.403       .  A
C1473      H1480   1.084       .  S
C1474      C1475   1.422       .  A
C1475      C1476   1.417       .  A
C1475      C1482   1.506       .  S
C1476      C1477   1.406       .  A
C1476      H1481   1.084       .  S
C1477      C1478   1.408       .  A
C1478      C1479   1.504   1_565  S
C1479      H1483   1.110       .  S
C1479      H1484   1.100       .  S
C1479      H1485   1.111       .  S
C1482      H1486   1.110       .  S
C1482      H1487   1.110       .  S
C1482      H1488   1.111       .  S
C1489      C1490   1.402       .  A
C1489      C1494   1.414       .  A
C1489      H1496   1.084       .  S
C1490      C1491   1.413       .  A
C1491      C1492   1.407       .  A
C1491      C1498   1.505       .  S
C1492      C1493   1.405       .  A
C1492      H1497   1.084       .  S
C1493      C1494   1.422       .  A
C1494      C1495   1.507       .  S
C1495      H1499   1.111       .  S
C1495      H1500   1.110       .  S
C1495      H1501   1.108       .  S
C1498      H1502   1.110       .  S
C1498      H1503   1.110   1_545  S
C1498      H1504   1.111       .  S
C1505      C1506   1.417       .  A
C1505      H1512   1.084       .  S
C1506      C1507   1.409       .  A
C1507      C1514   1.505       .  S
C1508      C1509   1.417   1_455  A
C1508      H1513   1.084       .  S
C1509      C1785   1.494       .  S
C1509      C1510   1.410       .  A
C1510      C1511   1.507       .  S
C1511      H1516   1.110       .  S
C1511      H2077   1.109       .  S
C1514      H1518   1.108       .  S
C1514      H1519   1.110       .  S
H1517      C2071   1.108       .  S
C1521      C1526   1.401       .  A
C1521      H1528   1.084   1_655  S
C1522      C1523   1.413       .  A
C1523      C1530   1.506       .  S
C1524      C1525   1.399       .  A
C1524      H1529   1.082       .  S
C1525      C1526   1.425       .  A
C1526      C1527   1.511       .  S
C1527      H1531   1.111       .  S
C1527      H1532   1.109       .  S
C1527      H1533   1.111       .  S
C1530      H1534   1.108       .  S
C1530      H1535   1.104       .  S
C1530      H1536   1.111       .  S
C1537      C1538   1.415       .  A
C1537      C1542   1.398       .  A
C1537      H1544   1.083       .  S
C1538      C1539   1.414       .  A
C1539      C1540   1.407       .  A
C1539      C1546   1.505       .  S
C1540      C1541   1.410       .  A
C1540      H1545   1.084       .  S
C1541      C1542   1.408       .  A
C1542      C1543   1.510       .  S
C1543      H1547   1.109       .  S
C1543      H1548   1.111       .  S
C1543      H1549   1.111       .  S
C1546      H1550   1.107       .  S
C1546      H1551   1.109       .  S
C1546      H1552   1.111       .  S
C1553      C1554   1.399       .  A
C1553      C1558   1.408       .  A
C1553      H1560   1.085       .  S
C1554      C1555   1.414       .  A
C1555      C1556   1.411       .  A
C1555      C1562   1.505       .  S
C1556      C1557   1.407       .  A
C1556      H1561   1.084       .  S
C1557      C1718   1.499   1_554  S
C1557      C1558   1.424       .  A
C1558      C2119   1.505       .  S
C1559      C2118   1.506       .  S
C1559      H1563   1.110       .  S
C1559      H1564   1.109       .  S
C1559      H1565   1.110       .  S
C1562      H1566   1.111       .  S
C1562      H1567   1.110       .  S
C1562      H1568   1.111       .  S
C1569      C1570   1.407       .  A
C1569      C1574   1.410       .  A
C1569      H1576   1.084       .  S
C1570      C1571   1.421       .  A
C1571      C1572   1.407       .  A
C1571      C1578   1.508       .  S
C1572      C1573   1.401       .  A
C1572      H1577   1.080       .  S
C1573      C1574   1.414       .  A
C1574      C1575   1.504       .  S
C1575      H1579   1.111       .  S
C1575      H1580   1.111       .  S
C1575      H1581   1.109       .  S
C1578      H1582   1.109       .  S
C1578      H1583   1.111       .  S
C1578      H1584   1.111       .  S
C1585      C1586   1.413       .  A
C1585      C1590   1.398       .  A
C1585      H1592   1.083       .  S
C1586      C1587   1.414       .  A
C1587      C1588   1.403       .  A
C1587      C1594   1.507       .  S
C1588      C1589   1.409       .  A
C1588      H1593   1.084       .  S
C1589      C1590   1.410       .  A
C1590      C1591   1.510       .  S
C1591      H1595   1.111       .  S
C1591      H1596   1.111       .  S
C1591      H1597   1.109       .  S
C1594      H1598   1.111       .  S
C1594      H1599   1.106       .  S
C1594      H1600   1.111       .  S
C1601      C1602   1.392   1_655  A
C1601      C1606   1.396       .  A
C1602      C1603   1.416       .  A
C1603      C1604   1.395   1_455  A
C1603      C1610   1.508       .  S
C1604      C1605   1.397       .  A
C1604      H1609   1.083       .  S
C1605      C1606   1.423       .  A
C1606      C1607   1.511       .  S
C1607      H1611   1.111       .  S
C1607      H1612   1.110       .  S
C1607      H1613   1.107       .  S
C1610      H1615   1.103       .  S
C1610      H1616   1.111       .  S
C1617      C1618   1.407       .  A
C1617      C1622   1.408       .  A
C1617      H1624   1.084       .  S
C1618      C1619   1.420       .  A
C1619      C1620   1.408       .  A
C1619      C1626   1.509       .  S
C1620      C1621   1.407       .  A
C1620      H1625   1.084       .  S
C1621      C1622   1.421       .  A
C1622      C1623   1.508       .  S
C1623      H1627   1.111       .  S
C1623      H1628   1.110       .  S
C1623      H1629   1.110       .  S
C1626      H1630   1.110       .  S
C1626      H1631   1.110       .  S
C1626      H1632   1.111       .  S
C1633      C1634   1.401       .  A
C1633      C1638   1.410       .  A
C1633      H1640   1.081       .  S
C1634      C1635   1.413       .  A
C1635      C1636   1.406       .  A
C1635      C1642   1.503       .  S
C1636      C1637   1.404       .  A
C1636      H1641   1.085       .  S
C1637      C1638   1.422       .  A
C1638      C1639   1.509       .  S
C1639      H1643   1.111       .  S
C1639      H1644   1.109       .  S
C1639      H1645   1.110       .  S
C1642      H1646   1.108   1_545  S
C1642      H1647   1.109       .  S
C1642      H1648   1.111       .  S
C1649      C1650   1.410       .  A
C1649      C1654   1.403       .  A
C1649      H1656   1.084       .  S
C1650      C1701   1.494   1_554  S
C1650      C1651   1.421       .  A
C1651      C1652   1.410       .  A
C1651      C1658   1.507       .  S
C1652      C1653   1.403       .  A
C1652      H1657   1.084       .  S
C1653      C1654   1.405       .  A
C1654      C1655   1.500   1_565  S
C1655      H1659   1.111   1_545  S
C1655      H1660   1.110   1_545  S
C1655      H1661   1.110       .  S
C1658      H1662   1.110       .  S
C1658      H1663   1.109       .  S
C1658      H1664   1.111       .  S
C1665      C1670   1.407       .  A
C1665      H1672   1.084       .  S
C1666      C1667   1.412   1_565  A
C1667      C2228   1.407       .  A
C1667      C1674   1.508       .  S
C1668      C2227   1.404       .  A
C1668      H1673   1.084   1_556  S
C1669      C2230   1.410   1_545  A
C1670      C2229   1.410   1_565  A
C1670      C1671   1.507       .  S
C1671      H1675   1.111       .  S
C1671      H1676   1.107       .  S
C1671      H1677   1.110       .  S
C1674      H1678   1.109       .  S
C1674      H2239   1.111       .  S
C1674      H2240   1.110       .  S
H1679      C2234   1.111   1_554  S
H1680      C2234   1.110       .  S
O1681      C1696   1.278       .  A
O1681     Al1689   1.964       .  S
C1682      O1692   1.273       .  A
C1682      O1683   1.258       .  A
O1683     Al1685   1.860       .  S
O1684      C1686   1.264       .  A
O1684     Al1685   1.944       .  S
Al1685     O1693   1.951       .  S
Al1685     O1695   1.842       .  S
Al1685     O1694   1.772       .  S
C1686      O1699   1.258       .  A
C1686      C2194   1.486   1_565  S
O1687      C1697   1.277       .  A
O1687     Al1689   1.975       .  S
O1688      C1701   1.266       .  A
O1688     Al1698   1.950       .  S
Al1689     O1702   1.869       .  S
Al1689     O1699   1.910       .  S
Al1689     O1694   1.767       .  S
O1690      C1697   1.252       .  A
O1690     Al1698   1.840       .  S
O1691      C1700   1.261       .  A
O1691     Al1698   1.904       .  S
O1692     Al1698   1.944       .  S
O1693      C1700   1.269       .  A
O1694     Al1698   1.774       .  S
O1695      C1696   1.259       .  A
C1696      C2146   1.483       .  S
C1697      C2226   1.491       .  S
C1700      C2181   1.501       .  S
C1701      O1702   1.254       .  A
O1703      C1718   1.254       .  A
O1703     Al1711   1.871       .  S
C1704      O1714   1.259       .  A
C1704      O1705   1.277       .  A
C1704      C2082   1.460       .  S
O1705     Al1707   1.958       .  S
O1706      C1708   1.250       .  A
O1706     Al1707   1.832       .  S
Al1707     O1715   1.911       .  S
Al1707     O1717   1.957       .  S
Al1707     O1716   1.773       .  S
C1708      O1721   1.276       .  A
C1708      C2066   1.487       .  S
O1709      C1719   1.257       .  A
O1709     Al1711   1.920       .  S
O1710      C1723   1.260       .  A
O1710     Al1720   1.834       .  S
Al1711     O1724   1.981       .  S
Al1711     O1721   1.970       .  S
Al1711     O1716   1.771       .  S
O1712      C1719   1.260       .  A
O1712     Al1720   1.938       .  S
O1713      C1722   1.263       .  A
O1713     Al1720   1.938       .  S
O1714     Al1720   1.852       .  S
O1715      C1722   1.262       .  A
O1716     Al1720   1.776       .  S
O1717      C1718   1.270       .  A
C1719      C2133   1.490       .  S
C1722      C2178   1.499       .  S
C1723      O1724   1.283       .  A
C1723      C2098   1.488       .  S
O1725      C1740   1.252       .  A
O1725     Al1733   1.868       .  S
C1726      O1736   1.261       .  A
C1726      O1727   1.273       .  A
C1726      C2149   1.476       .  S
O1727     Al1729   1.940       .  S
O1728      C1730   1.251       .  A
O1728     Al1729   1.846       .  S
Al1729     O1737   1.921       .  S
Al1729     O1739   1.972       .  S
Al1729     O1738   1.778       .  S
C1730      O1743   1.277       .  A
C1730      C2002   1.480       .  S
O1731      C1741   1.257       .  A
O1731     Al1733   1.911       .  S
O1732      C1745   1.254       .  A
O1732     Al1742   1.835       .  S
Al1733     O1746   1.960       .  S
Al1733     O1743   1.976       .  S
Al1733     O1738   1.765       .  S
O1734      C1741   1.261       .  A
O1734     Al1742   1.934       .  S
O1735      C1744   1.267       .  A
O1735     Al1742   1.931       .  S
O1736     Al1742   1.866       .  S
O1737      C1744   1.267       .  A
O1738     Al1742   1.774       .  S
O1739      C1740   1.269       .  A
C1740      C2034   1.510       .  S
C1741      C2050   1.486   1_565  S
C1744      C2018   1.501       .  S
C1745      O1746   1.278       .  A
C1745      C2165   1.475       .  S
O1747      C1762   1.283       .  A
O1747     Al1755   1.974       .  S
C1748      O1758   1.275       .  A
C1748      O1749   1.260       .  A
C1748      C2101   1.474       .  S
O1749     Al1751   1.855       .  S
O1750      C1752   1.260       .  A
O1750     Al1751   1.932       .  S
Al1751     O1759   1.934       .  S
Al1751     O1761   1.831       .  S
Al1751     O1760   1.775       .  S
C1752      O1765   1.257       .  A
C1752      C1954   1.485       .  S
O1753      C1763   1.278       .  A
O1753     Al1755   1.980       .  S
O1754      C1767   1.268       .  A
O1754     Al1764   1.954       .  S
Al1755     O1768   1.873       .  S
Al1755     O1765   1.914       .  S
Al1755     O1760   1.767       .  S
O1756      C1763   1.249       .  A
O1756     Al1764   1.839       .  S
O1757      C1766   1.263       .  A
O1757     Al1764   1.916       .  S
O1758     Al1764   1.950       .  S
O1759      C1766   1.268       .  A
O1760     Al1764   1.775       .  S
O1761      C1762   1.254       .  A
C1762      C2085   1.484       .  S
C1763      C1989   1.485       .  S
C1766      C2021   1.500       .  S
C1767      O1768   1.251       .  A
C1767      C1970   1.493       .  S
O1769      C1784   1.280       .  A
O1769     Al1777   1.969       .  S
C1770      O1780   1.275       .  A
C1770      O1771   1.260       .  A
O1771     Al1773   1.872       .  S
O1772      C1774   1.262       .  A
O1772     Al1773   1.935       .  S
Al1773     O1781   1.951       .  S
Al1773     O1783   1.841       .  S
Al1773     O1782   1.774       .  S
C1774      O1787   1.257       .  A
C1774      C1973   1.485       .  S
O1775      C1785   1.278       .  A
O1775     Al1777   1.981       .  S
O1776      C1789   1.267       .  A
Al1777     O1787   1.911       .  S
Al1777     O1782   1.767       .  S
O1778      C1785   1.252       .  A
O1778     Al1786   1.839       .  S
O1779      C1788   1.260       .  A
O1779     Al1786   1.897       .  S
O1780     Al1786   1.941       .  S
O1781      C1788   1.270       .  A
O1782     Al1786   1.768       .  S
O1783      C1784   1.260       .  A
C1784      C1909   1.488       .  S
C1788      C1938   1.498       .  S
C1789      O1790   1.253   1_556  A
C1789      C1957   1.491       .  S
O1791     Al1799   1.885       .  S
C1792      O1802   1.259       .  A
C1792      O1793   1.273       .  A
O1793     Al1795   1.950       .  S
O1794      C1796   1.251       .  A
O1794     Al1795   1.831       .  S
Al1795     O1803   1.908       .  S
Al1795     O1804   1.776       .  S
C1796      O1809   1.279       .  A
C1796      C2229   1.493       .  S
O1797      C1807   1.260       .  A
O1797     Al1799   1.925       .  S
O1798      C1811   1.261       .  A
O1798     Al1808   1.848       .  S
Al1799     O1812   1.959       .  S
Al1799     O1809   1.981       .  S
Al1799     O1804   1.772       .  S
O1800      C1807   1.259       .  A
O1800     Al1808   1.920       .  S
O1801      C1810   1.264       .  A
O1801     Al1808   1.934       .  S
O1802     Al1808   1.867       .  S
O1803      C1810   1.263       .  A
O1804     Al1808   1.777       .  S
O1805      C1806   1.268       .  A
C1806      C2053   1.493       .  S
C1807      C2037   1.491   1_545  S
C1810      C1941   1.497       .  S
C1811      O1812   1.279       .  A
C1811      C1893   1.486       .  S
O1813      C1828   1.252       .  A
O1813     Al1821   1.879       .  S
C1814      O1824   1.259       .  A
C1814      O1815   1.273       .  A
C1814      C1906   1.474       .  S
O1815     Al1817   1.944       .  S
O1816      C1818   1.250       .  A
O1816     Al1817   1.841       .  S
Al1817     O1825   1.906       .  S
Al1817     O1827   1.958       .  S
Al1817     O1826   1.769       .  S
C1818      O1831   1.277       .  A
C1818      C1986   1.484       .  S
O1819      C1829   1.258       .  A
O1819     Al1821   1.905       .  S
O1820      C1833   1.255       .  A
O1820     Al1830   1.841       .  S
Al1821     O1834   1.962       .  S
Al1821     O1831   1.977       .  S
Al1821     O1826   1.769       .  S
O1822      C1829   1.263       .  A
O1822     Al1830   1.937       .  S
O1823      C1832   1.267       .  A
O1823     Al1830   1.942       .  S
O1824     Al1830   1.864       .  S
O1825      C1832   1.264       .  A
O1826     Al1830   1.770       .  S
O1827      C1828   1.269       .  A
C1828      C2130   1.492       .  S
C1829      C2114   1.480       .  S
C1832      C1861   1.493       .  S
C1833      O1834   1.277       .  A
C1833      C1925   1.466       .  S
O1835      C1850   1.278       .  A
O1835     Al1843   1.959       .  S
C1836      O1846   1.272       .  A
C1836      O1837   1.260       .  A
C1836      C1890   1.471       .  S
O1837     Al1839   1.865       .  S
O1838      C1840   1.264       .  A
O1838     Al1839   1.941       .  S
Al1839     O1847   1.946       .  S
Al1839     O1849   1.847       .  S
Al1839     O1848   1.775       .  S
C1840      O1853   1.258       .  A
C1840      C2213   1.487   1_545  S
O1841      C1851   1.278       .  A
O1841     Al1843   1.981       .  S
O1842      C1855   1.269       .  A
O1842     Al1852   1.964       .  S
Al1843     O1856   1.875       .  S
Al1843     O1853   1.908       .  S
Al1843     O1848   1.769       .  S
O1844      C1851   1.251       .  A
O1844     Al1852   1.846       .  S
O1845      C1854   1.263       .  A
O1845     Al1852   1.903       .  S
O1846     Al1852   1.945       .  S
O1847      C1854   1.269       .  A
O1848     Al1852   1.774       .  S
O1849      C1850   1.257       .  A
C1850      C1877   1.472       .  S
C1851      C2005   1.481       .  S
C1854      C1858   1.494       .  S
C1855      O1856   1.251       .  A
C1855      C2197   1.500       .  S
C1857      C1858   1.406       .  A
C1857      C1862   1.409       .  A
C1857      H1864   1.084       .  S
C1858      C1859   1.419       .  A
C1859      C1860   1.407       .  A
C1859      C1866   1.508       .  S
C1860      C1861   1.405       .  A
C1860      H1865   1.084       .  S
C1861      C1862   1.418       .  A
C1862      C1863   1.507       .  S
C1863      H1867   1.111       .  S
C1863      H1868   1.109       .  S
C1863      H1869   1.110       .  S
C1866      H1870   1.111       .  S
C1866      H1871   1.110       .  S
C1866      H1872   1.111       .  S
C1873      C1874   1.395       .  A
C1873      C1878   1.401       .  A
C1873      H1880   1.085       .  S
C1874      C1875   1.417       .  A
C1875      C1876   1.396       .  A
C1876      C1877   1.398       .  A
C1876      H1881   1.085       .  S
C1877      C1878   1.422       .  A
C1878      C1879   1.510       .  S
C1879      H1883   1.111       .  S
C1879      H1884   1.109       .  S
C1879      H1885   1.110       .  S
C1882      H1886   1.110       .  S
C1882      H1887   1.106       .  S
C1882      H1888   1.110       .  S
C1889      C1890   1.404       .  A
C1889      C1894   1.400       .  A
C1889      H1896   1.072       .  S
C1890      C1891   1.405       .  A
C1891      C1892   1.400       .  A
C1891      C1898   1.508       .  S
C1892      C1893   1.415       .  A
C1892      H1897   1.082       .  S
C1893      C1894   1.413       .  A
C1894      C1895   1.508       .  S
C1895      H1899   1.109       .  S
C1895      H1900   1.110       .  S
C1895      H1901   1.110       .  S
C1898      H1902   1.109       .  S
C1898      H1903   1.110       .  S
C1898      H1904   1.111       .  S
C1905      C1906   1.409       .  A
C1905      C1910   1.404       .  A
C1905      H1912   1.084       .  S
C1906      C1907   1.406       .  A
C1907      C1908   1.395       .  A
C1907      C1914   1.510       .  S
C1908      C1909   1.414       .  A
C1908      H1913   1.083       .  S
C1909      C1910   1.414       .  A
C1910      C1911   1.506       .  S
C1911      H1915   1.111       .  S
C1911      H1916   1.109       .  S
C1911      H1917   1.106       .  S
C1914      H1918   1.111       .  S
C1914      H1919   1.109       .  S
C1914      H1920   1.111       .  S
C1921      C1922   1.401       .  A
C1921      C1926   1.390       .  A
C1921      H1928   1.084       .  S
C1922      C1923   1.425       .  A
C1923      C1924   1.403       .  A
C1924      C1925   1.397       .  A
C1924      H1929   1.084       .  S
C1925      C1926   1.417       .  A
C1926      C1927   1.512       .  S
C1927      H1931   1.111       .  S
C1927      H1932   1.108       .  S
C1927      H1933   1.109       .  S
C1930      H1934   1.110       .  S
C1930      H1935   1.109       .  S
C1930      H1936   1.111       .  S
C1937      C1938   1.406       .  A
C1937      C1942   1.408       .  A
C1937      H1944   1.084       .  S
C1938      C1939   1.422       .  A
C1939      C1940   1.407       .  A
C1940      C1941   1.405       .  A
C1940      H1945   1.084       .  S
C1941      C1942   1.421       .  A
C1942      C1943   1.509       .  S
C1943      H1947   1.111       .  S
C1943      H1948   1.110       .  S
C1943      H1949   1.110       .  S
C1946      H1950   1.110       .  S
C1946      H1952   1.111       .  S
C1953      C1954   1.402       .  A
C1953      C1958   1.411       .  A
C1953      H1960   1.084       .  S
C1954      C1955   1.413       .  A
C1955      C1956   1.406       .  A
C1955      C1962   1.505       .  S
C1956      C1957   1.404       .  A
C1956      H1961   1.085       .  S
C1957      C1958   1.421       .  A
C1958      C1959   1.506       .  S
C1959      H1963   1.110       .  S
C1959      H1964   1.110       .  S
C1959      H1965   1.109       .  S
C1962      H1966   1.110       .  S
C1962      H1967   1.110       .  S
C1962      H1968   1.111       .  S
C1969      C1970   1.405       .  A
C1969      C1974   1.407       .  A
C1969      H1976   1.084       .  S
C1970      C1971   1.423       .  A
C1971      C1972   1.412       .  A
C1971      C1978   1.508       .  S
C1972      C1973   1.400       .  A
C1972      H1977   1.084       .  S
C1973      C1974   1.412       .  A
C1974      C1975   1.504       .  S
C1975      H1979   1.111       .  S
C1975      H1980   1.109       .  S
C1975      H1981   1.110       .  S
C1978      H1982   1.108       .  S
C1978      H1983   1.110       .  S
C1978      H1984   1.111       .  S
C1985      C1986   1.398       .  A
C1985      C1990   1.405       .  A
C1985      H1992   1.084       .  S
C1986      C1987   1.425       .  A
C1987      C1988   1.406       .  A
C1987      C1994   1.510       .  S
C1988      C1989   1.399       .  A
C1988      H1993   1.084       .  S
C1989      C1990   1.425       .  A
C1990      C1991   1.509       .  S
C1991      H1995   1.109       .  S
C1991      H1996   1.108       .  S
C1991      H1997   1.110       .  S
C1994      H1998   1.110       .  S
C1994      H1999   1.108       .  S
C1994      H2000   1.109       .  S
C2001      C2002   1.399   1_545  A
C2001      C2006   1.405       .  A
C2001      H2008   1.084       .  S
C2002      C2003   1.421       .  A
C2003      C2004   1.407       .  A
C2003      C2010   1.509       .  S
C2004      C2005   1.400   1_565  A
C2004      H2009   1.084       .  S
C2005      C2006   1.421       .  A
C2006      C2007   1.507       .  S
C2007      H2011   1.111       .  S
C2007      H2012   1.108       .  S
C2007      H2013   1.110       .  S
C2010      H2014   1.111       .  S
C2010      H2015   1.107       .  S
C2010      H2016   1.108       .  S
C2017      C2018   1.409       .  A
C2017      C2022   1.415       .  A
C2017      H2024   1.084       .  S
C2018      C2019   1.422       .  A
C2019      C2020   1.403       .  A
C2019      C2026   1.511       .  S
C2020      C2021   1.404       .  A
C2020      H2025   1.084       .  S
C2021      C2022   1.420       .  A
C2022      C2023   1.507       .  S
C2023      H2027   1.111       .  S
C2023      H2028   1.109       .  S
C2023      H2029   1.111       .  S
C2026      H2030   1.110       .  S
C2026      H2031   1.110       .  S
C2026      H2032   1.111       .  S
C2033      C2034   1.412       .  A
C2033      C2038   1.402       .  A
C2033      H2040   1.084       .  S
C2034      C2035   1.422       .  A
C2035      C2036   1.419       .  A
C2035      C2042   1.505       .  S
C2036      C2037   1.408       .  A
C2036      H2041   1.084       .  S
C2037      C2038   1.412       .  A
C2038      C2039   1.507   1_565  S
C2039      H2043   1.111       .  S
C2039      H2044   1.103       .  S
C2039      H2045   1.110       .  S
C2042      H2046   1.110       .  S
C2042      H2047   1.110       .  S
C2042      H2048   1.111       .  S
C2049      C2050   1.401       .  A
C2049      C2054   1.410       .  A
C2049      H2056   1.085       .  S
C2050      C2051   1.414       .  A
C2051      C2052   1.409       .  A
C2051      C2058   1.504       .  S
C2052      C2053   1.405       .  A
C2052      H2057   1.084       .  S
C2053      C2054   1.422       .  A
C2054      C2055   1.507       .  S
C2055      H2059   1.110       .  S
C2055      H2060   1.109       .  S
C2055      H2061   1.110       .  S
C2058      H2062   1.110       .  S
C2058      H2063   1.109   1_545  S
C2058      H2064   1.111       .  S
C2065      C2066   1.414       .  A
C2065      H2072   1.085       .  S
C2066      C2067   1.408       .  A
C2067      C2074   1.506       .  S
C2068      C2069   1.416   1_455  A
C2068      H2073   1.084       .  S
C2069      C2070   1.410   1_554  A
C2070      C2071   1.507       .  S
C2071      H2076   1.110       .  S
C2074      H2078   1.110   1_556  S
C2074      H2079   1.110       .  S
C2081      C2086   1.400       .  A
C2081      H2088   1.085       .  S
C2082      C2083   1.413       .  A
C2083      C2090   1.507       .  S
C2084      C2085   1.400       .  A
C2084      H2089   1.083       .  S
C2085      C2086   1.430       .  A
C2086      C2087   1.513       .  S
C2087      H2091   1.111       .  S
C2087      H2092   1.110       .  S
C2087      H2093   1.111       .  S
C2090      H2094   1.107       .  S
C2090      H2095   1.106       .  S
C2090      H2096   1.111       .  S
C2097      C2098   1.415       .  A
C2097      C2102   1.395       .  A
C2097      H2104   1.082       .  S
C2098      C2099   1.412       .  A
C2099      C2100   1.402       .  A
C2099      C2106   1.505       .  S
C2100      C2101   1.409       .  A
C2100      H2105   1.084       .  S
C2101      C2102   1.406       .  A
C2102      C2103   1.509       .  S
C2103      H2107   1.109       .  S
C2103      H2108   1.111       .  S
C2103      H2109   1.111       .  S
C2106      H2110   1.105       .  S
C2106      H2111   1.106       .  S
C2106      H2112   1.111       .  S
C2113      C2114   1.399       .  A
C2113      C2118   1.407       .  A
C2113      H2120   1.085       .  S
C2114      C2115   1.413       .  A
C2115      C2116   1.407       .  A
C2115      C2122   1.506       .  S
C2116      C2117   1.405       .  A
C2116      H2121   1.084       .  S
C2117      C2118   1.422       .  A
C2119      H2123   1.110       .  S
C2119      H2124   1.108   1_554  S
C2119      H2125   1.110   1_554  S
C2122      H2126   1.110       .  S
C2122      H2127   1.110       .  S
C2122      H2128   1.111       .  S
C2129      C2130   1.404       .  A
C2129      C2134   1.406       .  A
C2129      H2136   1.085       .  S
C2130      C2131   1.421       .  A
C2131      C2132   1.413       .  A
C2131      C2138   1.508       .  S
C2132      C2133   1.403       .  A
C2132      H2137   1.082       .  S
C2133      C2134   1.413       .  A
C2134      C2135   1.502       .  S
C2135      H2139   1.111       .  S
C2135      H2140   1.109       .  S
C2135      H2141   1.108       .  S
C2138      H2142   1.110       .  S
C2138      H2143   1.108       .  S
C2138      H2144   1.111       .  S
C2145      C2146   1.411       .  A
C2145      C2150   1.393       .  A
C2145      H2152   1.083       .  S
C2146      C2147   1.412       .  A
C2147      C2148   1.403       .  A
C2147      C2154   1.507       .  S
C2148      C2149   1.410       .  A
C2148      H2153   1.084       .  S
C2149      C2150   1.410       .  A
C2150      C2151   1.511       .  S
C2151      H2155   1.111       .  S
C2151      H2156   1.110       .  S
C2151      H2157   1.109       .  S
C2154      H2158   1.111       .  S
C2154      H2159   1.109       .  S
C2154      H2160   1.111       .  S
C2161      C2162   1.394   1_655  A
C2161      C2166   1.399       .  A
C2162      C2163   1.417       .  A
C2163      C2164   1.397   1_455  A
C2163      C2170   1.509       .  S
C2164      C2165   1.398       .  A
C2164      H2169   1.083       .  S
C2165      C2166   1.425       .  A
C2166      C2167   1.512       .  S
C2167      H2171   1.111       .  S
C2167      H2172   1.111       .  S
C2167      H2173   1.109       .  S
C2170      H2175   1.104       .  S
C2170      H2176   1.110       .  S
C2177      C2178   1.406       .  A
C2177      C2182   1.410       .  A
C2177      H2184   1.083       .  S
C2178      C2179   1.420       .  A
C2179      C2180   1.408       .  A
C2179      C2186   1.508       .  S
C2180      C2181   1.407       .  A
C2180      H2185   1.083       .  S
C2181      C2182   1.422       .  A
C2182      C2183   1.508       .  S
C2183      H2187   1.111       .  S
C2183      H2188   1.110       .  S
C2183      H2189   1.110       .  S
C2186      H2190   1.109       .  S
C2186      H2191   1.110       .  S
C2186      H2192   1.111       .  S
C2193      C2194   1.399       .  A
C2193      C2198   1.410       .  A
C2193      H2200   1.083       .  S
C2194      C2195   1.413       .  A
C2195      C2196   1.411       .  A
C2195      C2202   1.505       .  S
C2196      C2197   1.408       .  A
C2196      H2201   1.084       .  S
C2197      C2198   1.426       .  A
C2198      C2199   1.509       .  S
C2199      H2203   1.111       .  S
C2199      H2204   1.108       .  S
C2199      H2205   1.110       .  S
C2202      H2206   1.109   1_545  S
C2202      H2207   1.110       .  S
C2202      H2208   1.111       .  S
C2209      C2210   1.411       .  A
C2209      C2214   1.405       .  A
C2209      H2216   1.084       .  S
C2210      C2211   1.422       .  A
C2211      C2212   1.413       .  A
C2211      C2218   1.507       .  S
C2212      C2213   1.404       .  A
C2212      H2217   1.084       .  S
C2213      C2214   1.407       .  A
C2214      C2215   1.500   1_565  S
C2215      H2219   1.111   1_545  S
C2215      H2220   1.110   1_545  S
C2215      H2221   1.110       .  S
C2218      H2222   1.110       .  S
C2218      H2223   1.110       .  S
C2218      H2224   1.111       .  S
C2225      C2230   1.407       .  A
C2225      H2232   1.084       .  S
C2226      C2227   1.410   1_565  A
C2227      C2234   1.508       .  S
C2228      H2233   1.084       .  S
C2230      C2231   1.507       .  S
C2231      H2235   1.111       .  S
C2231      H2236   1.108       .  S
C2231      H2237   1.110       .  S
C2234      H2238   1.109       .  S
