geometry optimzed in LAMMPS
_audit_creation_date              2020-11-30 
_audit_creation_method            'lammps2cif' 
_symmetry_space_group_name_H-M    'P1' 
_symmetry_Int_Tables_number       1 
_symmetry_cell_setting            triclinic 
loop_ 
_symmetry_equiv_pos_as_xyz 
  x,y,z 
_cell_length_a                    44.93297826 
_cell_length_b                    36.809906732965146 
_cell_length_c                    39.87667230664518 
_cell_angle_alpha                 90.22852225835902 
_cell_angle_beta                  90.1042057682508 
_cell_angle_gamma                 89.05214946264051 
loop_ 
_atom_site_label 
_atom_site_type_symbol 
_atom_site_fract_x 
_atom_site_fract_y 
_atom_site_fract_z 
_atom_site_charge 
Fe1        Fe  0.10285408  0.90372376  0.35966328     1.65800
Fe2        Fe  0.07674842  0.89807736  0.43768063     1.73200
Fe3        Fe  0.11397449  0.97295453  0.41308235     1.54400
O4          O  0.15511708  0.95395751  0.39293544    -0.81900
O5          O  0.05036613  0.94122454  0.44944936    -0.80200
O6          O  0.14751560  0.89919058  0.36869438    -0.84400
O7          O  0.11012154  0.95190307  0.33366951    -0.79200
O8          O  0.12922207  0.95926248  0.45930095    -0.81000
O9          O  0.04415077  0.88511294  0.40154554    -0.83700
C10         C  0.10559582  0.98540765  0.33930296     0.97000
C11         C  0.16460631  0.92378193  0.37984439     1.04500
O12         O  0.09802547  0.92535384  0.40398828    -1.12700
O13         O  0.10175402  0.85162334  0.42924632    -0.75200
O14         O  0.09691898  0.84982504  0.37465018    -0.78600
O15         O  0.10066743  0.99669918  0.36865463    -0.79300
C16         C  0.10102782  0.83356577  0.40225008     0.95900
O17         O  0.05796328  0.91048861  0.35307217    -0.77300
O18         O  0.10547325  0.91080276  0.47763575    -0.82500
C19         C  0.05158493  0.97538530  0.44717974     0.98500
C20         C  0.12377032  0.93654808  0.48197959     1.04500
O21         O  0.07363052  0.99187902  0.43419524    -0.78100
C22         C  0.03799923  0.89979661  0.37318210     1.02800
Fe23       Fe  0.09412320  0.60295971  0.37088088     1.65800
Fe24       Fe  0.06984782  0.61355200  0.44955882     1.73200
Fe25       Fe  0.10949836  0.53784630  0.42789613     1.54400
O26         O  0.09430379  0.51071634  0.38630507    -0.81900
O27         O  0.09779398  0.59988136  0.49054758    -0.80200
O28         O  0.09865475  0.55249679  0.34720010    -0.84400
O29         O  0.13905157  0.60522891  0.37547404    -0.79200
O30         O  0.07049008  0.52097548  0.45317333    -0.81000
O31         O  0.09535798  0.65828055  0.43989382    -0.83700
C32         C  0.15746065  0.58174490  0.38698735     0.97000
C33         C  0.09624689  0.51959781  0.35591818     1.04500
O34         O  0.09143100  0.58440796  0.41650183    -1.12700
O35         O  0.03727780  0.62841491  0.41371202    -0.75200
O36         O  0.04918211  0.59922353  0.36674338    -0.78600
O37         O  0.14927238  0.55367625  0.40358050    -0.79300
C38         C  0.02974284  0.61304113  0.38622579     0.95900
O39         O  0.09063154  0.65794020  0.38496562    -0.77300
O40         O  0.04309866  0.57173750  0.46101488    -0.82500
C41         C  0.11899762  0.57679267  0.49479460     0.98500
C42         C  0.04657715  0.53766151  0.46264203     1.04500
O43         O  0.12776630  0.55605268  0.47144924    -0.78100
C44         C  0.09529617  0.67502510  0.41226247     1.02800
Fe45       Fe  0.35194073  0.91222432  0.35694651     1.65800
Fe46       Fe  0.33023984  0.90020447  0.27638674     1.73200
Fe47       Fe  0.36707330  0.97674770  0.29936915     1.54400
O48         O  0.35166840  0.00461681  0.34033160    -0.81900
O49         O  0.36313238  0.90772658  0.23910390    -0.80200
O50         O  0.35451651  0.96302451  0.37984276    -0.84400
O51         O  0.39727808  0.90990651  0.35348136    -0.79200
O52         O  0.32855870  0.99506985  0.27341334    -0.81000
O53         O  0.35072354  0.85181668  0.29016258    -0.83700
C54         C  0.41547935  0.93253577  0.34133217     0.97000
C55         C  0.35225229  0.99587277  0.37073831     1.04500
O56         O  0.34982084  0.92985883  0.31060112    -1.12700
O57         O  0.29378084  0.89300230  0.30956818    -0.75200
O58         O  0.30649939  0.91492979  0.36029039    -0.78600
O59         O  0.40705887  0.96019173  0.32383857    -0.79300
C60         C  0.28714906  0.90437854  0.33923353     0.95900
O61         O  0.34973769  0.85715675  0.34506319    -0.77300
O62         O  0.30753660  0.94342296  0.25774410    -0.82500
C63         C  0.38121196  0.93377342  0.23460269     0.98500
C64         C  0.30831280  0.97760063  0.25783582     1.04500
O65         O  0.38473568  0.95849795  0.25605514    -0.78100
C66         C  0.35093700  0.83749785  0.31895898     1.02800
Fe67       Fe  0.34439414  0.60801607  0.36402520     1.65800
Fe68       Fe  0.31546279  0.61520343  0.28714081     1.73200
Fe69       Fe  0.35789485  0.54149375  0.30798916     1.54400
O70         O  0.39809835  0.55785279  0.33142625    -0.81900
O71         O  0.28907440  0.57225919  0.27857470    -0.80200
O72         O  0.38884912  0.61176179  0.35622056    -0.84400
O73         O  0.35172027  0.55821208  0.38815928    -0.79200
O74         O  0.37431604  0.55999909  0.26375536    -0.81000
O75         O  0.28493270  0.63050565  0.32472121    -0.83700
C76         C  0.34842958  0.52502177  0.38042899     0.97000
C77         C  0.40680647  0.58674580  0.34660187     1.04500
O78         O  0.33959493  0.58794466  0.31925136    -1.12700
O79         O  0.34044977  0.66110703  0.29356654    -0.75200
O80         O  0.33895953  0.66256415  0.34879600    -0.78600
O81         O  0.34415722  0.51526931  0.35048982    -0.79300
C82         C  0.34248553  0.67861497  0.32080396     0.95900
O83         O  0.29980943  0.60202092  0.37113909    -0.77300
O84         O  0.34111433  0.60038319  0.24505908    -0.82500
C85         C  0.29366776  0.53838932  0.27608000     0.98500
C86         C  0.36266279  0.57807605  0.24009464     1.04500
O87         O  0.31858052  0.52315114  0.28409789    -0.78100
C88         C  0.27932553  0.61420484  0.35218184     1.02800
Fe89       Fe  0.39683395  0.40763715  0.11618166     1.65800
Fe90       Fe  0.42365327  0.39683174  0.03869255     1.73200
Fe91       Fe  0.37983058  0.46885580  0.05703294     1.54400
O92         O  0.34147235  0.45520443  0.08428037    -0.81900
O93         O  0.45031807  0.43939643  0.03096386    -0.80200
O94         O  0.35203425  0.40326030  0.11110589    -0.84400
O95         O  0.39149645  0.46007275  0.13730304    -0.79200
O96         O  0.36080097  0.44117219  0.01870630    -0.81000
O97         O  0.45400465  0.38029515  0.07619055    -0.83700
C98         C  0.39330856  0.49268966  0.12673161     0.97000
C99         C  0.33357017  0.42705246  0.10060505     1.04500
O100        O  0.40028917  0.42506725  0.07077856    -1.12700
O101        O  0.39779640  0.35195786  0.04636331    -0.75200
O102        O  0.40127110  0.35241617  0.10179675    -0.78600
O103        O  0.39544637  0.49995959  0.09586985    -0.79300
C104        C  0.39774244  0.33519681  0.07422046     0.95900
O105        O  0.44157412  0.41240129  0.12138249    -0.77300
O106        O  0.40020009  0.41354204  0.49566674    -0.82500
C107        C  0.44372711  0.47196739  0.02373125     0.98500
C108        C  0.37621028  0.43225567  0.49291163     1.04500
O109        O  0.41744691  0.48564640  0.02818932    -0.78100
C110        C  0.46103248  0.39660229  0.10341920     1.02800
Fe111      Fe  0.40494726  0.10350217  0.10992803     1.65800
Fe112      Fe  0.42707855  0.11458866  0.03074914     1.73200
Fe113      Fe  0.38871958  0.04024645  0.05175882     1.54400
O114        O  0.40560161  0.01174008  0.09167179    -0.81900
O115        O  0.39818972  0.10249974  0.48866131    -0.80200
O116        O  0.40048350  0.05206223  0.13238731    -0.84400
O117        O  0.36079298  0.10825143  0.10601872    -0.79200
O118        O  0.42677541  0.02279346  0.02443633    -0.81000
O119        O  0.40078679  0.15893736  0.04205054    -0.83700
C120        C  0.34237657  0.08614256  0.09405160     0.97000
C121        C  0.40306717  0.01927578  0.12233997     1.04500
O122        O  0.40683212  0.08559861  0.06382252    -1.12700
O123        O  0.45982455  0.12777892  0.06629692    -0.75200
O124        O  0.44924112  0.09746103  0.11281945    -0.78600
O125        O  0.35009575  0.05716475  0.07783222    -0.79300
C126        C  0.46782973  0.10992465  0.09239396     0.95900
O127        O  0.40849656  0.15896681  0.09659809    -0.77300
O128        O  0.45395844  0.07269596  0.01780231    -0.82500
C129        C  0.37772815  0.07939108  0.48443866     0.98500
C130        C  0.45044934  0.03885155  0.01496124     1.04500
O131        O  0.37002196  0.05834640  0.50761033    -0.78100
C132        C  0.40286245  0.17602952  0.06943725     1.02800
Fe133      Fe  0.14832352  0.40727794  0.11878417     1.65800
Fe134      Fe  0.17262110  0.39376305  0.19690983     1.73200
Fe135      Fe  0.12815697  0.46593329  0.17924619     1.54400
O136        O  0.14283315  0.49838928  0.14095817    -0.81900
O137        O  0.14676822  0.40777098  0.23983795    -0.80200
O138        O  0.14171191  0.45928974  0.09863934    -0.84400
O139        O  0.10405538  0.40040277  0.12221533    -0.79200
O140        O  0.16572206  0.48363165  0.20813511    -0.81000
O141        O  0.14805727  0.34819128  0.18591924    -0.83700
C142        C  0.08421970  0.42186488  0.13352021     0.97000
C143        C  0.14191527  0.49167384  0.10987976     1.04500
O144        O  0.14971547  0.42294218  0.16506608    -1.12700
O145        O  0.20446010  0.38009305  0.16001902    -0.75200
O146        O  0.19274330  0.41452859  0.11592977    -0.78600
O147        O  0.09014801  0.44977507  0.15170599    -0.79300
C148        C  0.21177355  0.39859568  0.13434415     0.95900
O149        O  0.15400686  0.35233374  0.13086014    -0.77300
O150        O  0.19793925  0.43659617  0.20788147    -0.82500
C151        C  0.12322664  0.42720881  0.24325680     0.98500
C152        C  0.19166227  0.46954129  0.21416334     1.04500
O153        O  0.10962057  0.43839698  0.21768128    -0.78100
C154        C  0.14896640  0.33353255  0.15698848     1.02800
Fe155      Fe  0.15610786  0.10278265  0.10521148     1.65800
Fe156      Fe  0.17930985  0.11610077  0.18385811     1.73200
Fe157      Fe  0.13887984  0.04323112  0.16445573     1.54400
O158        O  0.10150356  0.05599640  0.13439922    -0.81900
O159        O  0.20724181  0.07493555  0.19434319    -0.80200
O160        O  0.11199967  0.10756464  0.10848682    -0.84400
O161        O  0.15220344  0.05006024  0.08529021    -0.79200
O162        O  0.11758016  0.07324970  0.20005609    -0.81000
O163        O  0.21035792  0.13101189  0.14713215    -0.83700
C164        C  0.15431027  0.01754875  0.09620818     0.97000
C165        C  0.09363231  0.08418656  0.11749643     1.04500
O166        O  0.15867761  0.08644533  0.15099270    -1.12700
O167        O  0.15189747  0.15997454  0.17350962    -0.75200
O168        O  0.15868470  0.15813328  0.11847242    -0.78600
O169        O  0.15674793  0.01081244  0.12722571    -0.79300
C170        C  0.15289191  0.17590497  0.14531605     0.95900
O171        O  0.20032050  0.09737268  0.10215959    -0.77300
O172        O  0.15372993  0.09984435  0.22626442    -0.82500
C173        C  0.20129156  0.04293129  0.20274680     0.98500
C174        C  0.13034004  0.08075044  0.22706547     1.04500
O175        O  0.17607686  0.02806996  0.19614016    -0.78100
C176        C  0.21864470  0.11169843  0.12193859     1.02800
C177        C  0.16346817  0.27689809  0.12700248    -0.06000
C178        C  0.14680878  0.29325546  0.15298029     0.00000
C179        C  0.12918098  0.27093340  0.17366209    -0.08600
C180        C  0.13089988  0.23287063  0.16927642    -0.06000
C181        C  0.14895002  0.21636377  0.14450342    -0.00100
C182        C  0.16472610  0.23899718  0.12203774    -0.08500
C183        C  0.18361647  0.22375659  0.09345625     0.61900
H184        H  0.17635559  0.29422039  0.11090050     0.12500
H185        H  0.11844761  0.21552024  0.18581527     0.12600
C186        C  0.10831093  0.28692800  0.19993542     0.62100
F187        F  0.19796901  0.25077086  0.07598516    -0.23100
F188        F  0.16569188  0.20560720  0.07091352    -0.20400
F189        F  0.20521956  0.20023567  0.10588435    -0.20100
F190        F  0.09101081  0.31442038  0.18596522    -0.20100
F191        F  0.12460765  0.30066505  0.22639779    -0.20500
F192        F  0.08929473  0.26110420  0.21251071    -0.23100
C193        C  0.02047671  0.12724077  0.08745948    -0.06000
C194        C  0.49956179  0.10366745  0.09968635     0.00000
C195        C  0.01139924  0.06728531  0.11055027    -0.08600
C196        C  0.04199076  0.06296853  0.11593532    -0.06000
C197        C  0.06203637  0.09037749  0.10804745    -0.00100
C198        C  0.05119817  0.12287088  0.09213957    -0.08500
C199        C  0.07109521  0.15335493  0.08000478     0.61900
H200        H  0.01155660  0.15202371  0.07655192     0.12500
H201        H  0.05036208  0.03808642  0.12714363     0.12600
C202        C  0.49046461  0.03863338  0.12107919     0.62100
F203        F  0.05507766  0.18095179  0.06436718    -0.23100
F204        F  0.09137167  0.13984328  0.05683071    -0.20400
F205        F  0.08583191  0.16878339  0.10687875    -0.20100
F206        F  0.47254392  0.03055847  0.09391614    -0.20100
F207        F  0.47317039  0.04799840  0.14841889    -0.20500
F208        F  0.50641952  0.00738554  0.12928237    -0.23100
C209        C  0.29160964  0.06470855  0.10155358    -0.06000
C210        C  0.31071734  0.09420276  0.10052136     0.00000
C211        C  0.29926090  0.13018177  0.10615871    -0.08600
C212        C  0.26911146  0.13459587  0.11438045    -0.06000
C213        C  0.25018829  0.10500126  0.11506160    -0.00100
C214        C  0.26133286  0.06941477  0.10813266    -0.08500
C215        C  0.24153810  0.03636095  0.10665174     0.61900
H216        H  0.30055491  0.03769606  0.09677954     0.12500
H217        H  0.25980639  0.16139039  0.11945674     0.12600
C218        C  0.31793354  0.16411870  0.10238381     0.62100
F219        F  0.25786311  0.00412563  0.10609829    -0.23100
F220        F  0.22459465  0.03787093  0.07779935    -0.20400
F221        F  0.22305704  0.03551000  0.13418350    -0.20100
F222        F  0.33306583  0.16291014  0.07220250    -0.20100
F223        F  0.33794399  0.16665661  0.12864546    -0.20500
F224        F  0.30056395  0.19555371  0.10254202    -0.23100
C225        C  0.25316918  0.43991979  0.12837632    -0.06000
C226        C  0.24315911  0.40414723  0.12636558     0.00000
C227        C  0.26230154  0.37609416  0.11487587    -0.08600
C228        C  0.29153633  0.38500366  0.10594109    -0.06000
C229        C  0.30180243  0.42094185  0.10810157    -0.00100
C230        C  0.28237662  0.44888975  0.11984527    -0.08500
C231        C  0.29268949  0.48749237  0.12517494     0.61900
H232        H  0.23776577  0.46088200  0.13704113     0.12500
H233        H  0.30666168  0.36387534  0.09706309     0.12600
C234        C  0.25150694  0.33743490  0.11114906     0.62100
F235        F  0.27122411  0.50902316  0.14076079    -0.23100
F236        F  0.29925857  0.50317908  0.09468612    -0.20400
F237        F  0.31768713  0.48698614  0.14536244    -0.20100
F238        F  0.22743324  0.33682290  0.08948751    -0.20100
F239        F  0.24293703  0.32429933  0.14203422    -0.20500
F240        F  0.27344112  0.31440520  0.09845915    -0.23100
C241        C  0.01413636  0.39339151  0.08739159    -0.06000
C242        C  0.49282851  0.39917930  0.11332062     0.00000
C243        C  0.50226604  0.40621252  0.14679277    -0.08600
C244        C  0.03241876  0.41302695  0.15162722    -0.06000
C245        C  0.05309195  0.41293487  0.12540892    -0.00100
C246        C  0.04436523  0.40027407  0.09313348    -0.08500
C247        C  0.06658325  0.39267808  0.06503074     0.61900
H248        H  0.00666672  0.38694494  0.06226501     0.12500
H249        H  0.03981620  0.41975539  0.17678802     0.12600
C250        C  0.48175704  0.40200487  0.17674569     0.62100
F251        F  0.05254248  0.38681185  0.03459438    -0.23100
F252        F  0.08309983  0.36173573  0.07260305    -0.20400
F253        F  0.08562052  0.42144010  0.06108382    -0.20100
F254        F  0.46590026  0.37025462  0.17374147    -0.20100
F255        F  0.46219397  0.43111336  0.17873667    -0.20500
F256        F  0.49752887  0.40034869  0.20658532    -0.23100
C257        C  0.38950720  0.23436240  0.09878246    -0.06000
C258        C  0.39971356  0.21671652  0.06950770     0.00000
C259        C  0.40815632  0.23840009  0.04166983    -0.08600
C260        C  0.40580311  0.27651537  0.04430806    -0.06000
C261        C  0.39636525  0.29434082  0.07379108    -0.00100
C262        C  0.38773786  0.27271794  0.10158807    -0.08500
C263        C  0.37668945  0.28958667  0.13418799     0.61900
H264        H  0.38330089  0.21770900  0.11986869     0.12500
H265        H  0.40975738  0.29259971  0.52097041     0.12600
C266        C  0.41509254  0.22176270  0.50534883     0.62100
F267        F  0.36545646  0.26381167  0.15573569    -0.23100
F268        F  0.35415472  0.31465257  0.12765644    -0.20400
F269        F  0.39991263  0.30649580  0.15044988    -0.20100
F270        F  0.39167433  0.20229337  0.49224549    -0.20100
F271        F  0.43988888  0.19929559  0.50887786    -0.20500
F272        F  0.42209968  0.24821641  0.48220173    -0.23100
C273        C  0.37260520  0.46851531  0.40268518    -0.06000
C274        C  0.35132440  0.49670577  0.40684364     0.00000
C275        C  0.33406410  0.49779879  0.43633160    -0.08600
C276        C  0.34119566  0.47351498  0.46237208    -0.06000
C277        C  0.36513639  0.44808082  0.46025253    -0.00100
C278        C  0.37961208  0.44370040  0.42875216    -0.08500
C279        C  0.40252853  0.41367799  0.42248041     0.61900
H280        H  0.38481714  0.46716980  0.37931132     0.12500
H281        H  0.32875659  0.47584166  0.48549343     0.12600
C282        C  0.30774972  0.52398508  0.43998890     0.62100
F283        F  0.40953421  0.41061735  0.38877883    -0.23100
F284        F  0.39128431  0.38077782  0.43272977    -0.20400
F285        F  0.42852051  0.42058549  0.43979280    -0.20100
F286        F  0.28860782  0.51956740  0.41314270    -0.20100
F287        F  0.31737742  0.55943238  0.44080442    -0.20500
F288        F  0.29189297  0.51792324  0.46911320    -0.23100
C289        C  0.40241891  0.55313281  0.20336492    -0.06000
C290        C  0.37365300  0.56878194  0.20564820     0.00000
C291        C  0.35455244  0.56628756  0.17726225    -0.08600
C292        C  0.36352173  0.54387687  0.15009004    -0.06000
C293        C  0.39016819  0.52334264  0.15091122    -0.00100
C294        C  0.41103362  0.53050135  0.17652089    -0.08500
C295        C  0.44247616  0.51520227  0.17704533     0.61900
H296        H  0.41781667  0.55647855  0.22404788     0.12500
H297        H  0.34871843  0.54010061  0.12896974     0.12600
C298        C  0.32428711  0.58526870  0.17608298     0.62100
F299        F  0.46223256  0.54357409  0.17882967    -0.23100
F300        F  0.44937340  0.49492013  0.14878832    -0.20400
F301        F  0.44618573  0.49377075  0.20518441    -0.20100
F302        F  0.32767601  0.62211085  0.18147655    -0.20100
F303        F  0.30576497  0.57132699  0.20031791    -0.20500
F304        F  0.31047569  0.58085545  0.14530286    -0.23100
C305        C  0.23921201  0.53075844  0.27005012    -0.06000
C306        C  0.26816330  0.51766917  0.26227784     0.00000
C307        C  0.27151973  0.48987744  0.23798563    -0.08600
C308        C  0.24591463  0.47734190  0.22154691    -0.06000
C309        C  0.21683283  0.49015668  0.22935171    -0.00100
C310        C  0.21345026  0.51745013  0.25422603    -0.08500
C311        C  0.18306858  0.53218769  0.26455648     0.61900
H312        H  0.23693791  0.55205331  0.28873360     0.12500
H313        H  0.24851094  0.45647461  0.20254329     0.12600
C314        C  0.30178219  0.47336896  0.22926580     0.62100
F315        F  0.18500269  0.55775247  0.29002015    -0.23100
F316        F  0.16571087  0.50416727  0.27593392    -0.20400
F317        F  0.16931554  0.54868065  0.23742315    -0.20100
F318        F  0.31407260  0.45721253  0.25742708    -0.20100
F319        F  0.32054709  0.49997013  0.21782996    -0.20500
F320        F  0.29983535  0.44694246  0.20458077    -0.23100
C321        C  0.23977257  0.99439279  0.20288305    -0.06000
C322        C  0.22622645  0.02358328  0.21964875     0.00000
C323        C  0.24099189  0.03947883  0.24757240    -0.08600
C324        C  0.26936337  0.02618781  0.25707672    -0.06000
C325        C  0.28264961  0.99623154  0.24094727    -0.00100
C326        C  0.26771459  0.98030531  0.21291823    -0.08500
C327        C  0.28082193  0.94835987  0.19332260     0.61900
H328        H  0.22853345  0.98314138  0.18126453     0.12500
H329        H  0.28045099  0.03755275  0.27873362     0.12600
C330        C  0.22569047  0.06844780  0.26899729     0.62100
F331        F  0.26797874  0.94533446  0.16187214    -0.23100
F332        F  0.27583947  0.91639047  0.21038627    -0.20400
F333        F  0.31105056  0.95272746  0.18881596    -0.20100
F334        F  0.19773229  0.05662589  0.27780697    -0.20100
F335        F  0.22299880  0.10075991  0.25167247    -0.20500
F336        F  0.24130130  0.07526260  0.29826929    -0.23100
C337        C  0.36248421  0.77614160  0.29459979    -0.06000
C338        C  0.35139768  0.79668430  0.32182592     0.00000
C339        C  0.33855647  0.77777931  0.34924997    -0.08600
C340        C  0.33721616  0.73948732  0.34802936    -0.06000
C341        C  0.34728497  0.71903767  0.32028747    -0.00100
C342        C  0.36055062  0.73784880  0.29307496    -0.08500
C343        C  0.37268579  0.71811040  0.26230069     0.61900
H344        H  0.37216217  0.79058678  0.27381322     0.12500
H345        H  0.32715867  0.72514483  0.36863334     0.12600
C346        C  0.32485403  0.79754903  0.37918547     0.62100
F347        F  0.38785558  0.74114765  0.24121867    -0.23100
F348        F  0.34950870  0.70350994  0.24409706    -0.20400
F349        F  0.39230665  0.69073750  0.27198690    -0.20100
F350        F  0.30331046  0.82201216  0.36825375    -0.20100
F351        F  0.34668356  0.81566253  0.39675433    -0.20500
F352        F  0.31133177  0.77403599  0.40123409    -0.23100
C353        C  0.37935052  0.93598873  0.17252250    -0.06000
C354        C  0.39614918  0.94067488  0.20187657     0.00000
C355        C  0.42024592  0.96526523  0.20089162    -0.08600
C356        C  0.42169281  0.99038571  0.17467156    -0.06000
C357        C  0.40257384  0.98892887  0.14708431    -0.00100
C358        C  0.38248044  0.95941896  0.14468548    -0.08500
C359        C  0.36289025  0.95417765  0.11404772     0.61900
H360        H  0.36156834  0.91638621  0.17284416     0.12500
H361        H  0.43793789  0.01200364  0.17623292     0.12600
C362        C  0.44344037  0.96782759  0.22841985     0.62100
F363        F  0.34395777  0.92517343  0.11775449    -0.23100
F364        F  0.38047820  0.94730978  0.08624389    -0.20400
F365        F  0.34567783  0.98507245  0.10863689    -0.20100
F366        F  0.44245619  0.93862594  0.25011571    -0.20100
F367        F  0.43899694  0.99970412  0.24634766    -0.20500
F368        F  0.47152877  0.96818831  0.21424701    -0.23100
C369        C  0.37320824  0.05296456  0.39335187    -0.06000
C370        C  0.35227566  0.02514965  0.39632961     0.00000
C371        C  0.33317783  0.02502033  0.42433369    -0.08600
C372        C  0.33893488  0.04900278  0.45097478    -0.06000
C373        C  0.36392979  0.07183387  0.45097186    -0.00100
C374        C  0.37911602  0.07692262  0.42021187    -0.08500
C375        C  0.40222702  0.10605774  0.41588964     0.61900
H376        H  0.38653108  0.05409584  0.37078293     0.12500
H377        H  0.32583549  0.04695118  0.47363432     0.12600
C378        C  0.30756012  0.99879249  0.42665504     0.62100
F379        F  0.40862932  0.11160420  0.38235347    -0.23100
F380        F  0.42830913  0.09605834  0.43208914    -0.20400
F381        F  0.39154330  0.13863012  0.42893968    -0.20100
F382        F  0.31841537  0.96404843  0.43258008    -0.20100
F383        F  0.29153333  0.99905546  0.39698645    -0.20500
F384        F  0.28824463  0.00819472  0.45238599    -0.23100
C385        C  0.99246135  0.52678081  0.46466416    -0.06000
C386        C  0.02105169  0.51829412  0.47729649     0.00000
C387        C  0.02359029  0.49894345  0.50765909    -0.08600
C388        C  0.99741347  0.48527511  0.02467435    -0.06000
C389        C  0.46877802  0.49283259  0.00937102    -0.00100
C390        C  0.46814873  0.51214434  0.48020860    -0.08500
C391        C  0.43825489  0.52243761  0.46513061     0.61900
H392        H  0.99083545  0.54331663  0.44229614     0.12500
H393        H  0.99902093  0.46929532  0.04739378     0.12600
C394        C  0.05342626  0.49276613  0.52447573     0.62100
F395        F  0.44112241  0.54107668  0.43525129    -0.23100
F396        F  0.42035161  0.54307552  0.98364153    -0.20400
F397        F  0.42229453  0.49157016  0.45879481    -0.20100
F398        F  0.06677343  0.52504250  0.03080335    -0.20100
F399        F  0.07092600  0.46976577  0.50502612    -0.20500
F400        F  0.04969601  0.47730363  0.05848984    -0.23100
C401        C  0.49201140  0.58709393  0.34649937    -0.06000
C402        C  0.49806053  0.60646653  0.37642824     0.00000
C403        C  0.47358734  0.61924866  0.39603265    -0.08600
C404        C  0.44456863  0.61165786  0.38506088    -0.06000
C405        C  0.43870607  0.59179860  0.35558634    -0.00100
C406        C  0.46290338  0.57928944  0.33581524    -0.08500
C407        C  0.45828324  0.55829442  0.30338657     0.61900
H408        H  0.01004090  0.58446518  0.32921849     0.12500
H409        H  0.42585736  0.62080979  0.40010253     0.12600
C410        C  0.47737235  0.64050928  0.42853493     0.62100
F411        F  0.48469663  0.55223800  0.28630204    -0.23100
F412        F  0.43933504  0.57768455  0.28247697    -0.20400
F413        F  0.44623790  0.52482826  0.31032747    -0.20100
F414        F  0.99234885  0.67285753  0.42455317    -0.20100
F415        F  0.99193313  0.61943916  0.45253170    -0.20500
F416        F  0.45034209  0.65142744  0.44219601    -0.23100
C417        C  0.19780378  0.62525817  0.37586372    -0.06000
C418        C  0.18955326  0.58868008  0.38028566     0.00000
C419        C  0.21137623  0.56079313  0.37561537    -0.08600
C420        C  0.24046384  0.57072858  0.36676624    -0.06000
C421        C  0.24824625  0.60712309  0.36179889    -0.00100
C422        C  0.22671850  0.63494567  0.36633801    -0.08500
C423        C  0.23440960  0.67460418  0.36158143     0.61900
H424        H  0.18118174  0.64652140  0.37955718     0.12500
H425        H  0.25743638  0.54992278  0.36282756     0.12600
C426        C  0.20408952  0.52079468  0.37870948     0.62100
F427        F  0.21097455  0.69763638  0.37024597    -0.23100
F428        F  0.24134092  0.68079547  0.32834720    -0.20400
F429        F  0.25858485  0.68320957  0.38144891    -0.20100
F430        F  0.18064774  0.51250318  0.35764569    -0.20100
F431        F  0.19655780  0.51303834  0.41148256    -0.20500
F432        F  0.22799889  0.49852188  0.37000294    -0.23100
C433        C  0.11180590  0.57034597  0.05706694    -0.06000
C434        C  0.13155213  0.56873921  0.02981709     0.00000
C435        C  0.15874196  0.54887658  0.03382937    -0.08600
C436        C  0.16185004  0.52463766  0.06085504    -0.06000
C437        C  0.13998615  0.52229017  0.08568505    -0.00100
C438        C  0.11536486  0.54704917  0.08495953    -0.08500
C439        C  0.09153917  0.54662138  0.11189940     0.61900
H440        H  0.09162531  0.58658405  0.05454491     0.12500
H441        H  0.18125259  0.50678855  0.06221714     0.12600
C442        C  0.18410920  0.55129287  0.00902281     0.62100
F443        F  0.06883360  0.57155935  0.10556931    -0.23100
F444        F  0.10393809  0.55511756  0.14263394    -0.20400
F445        F  0.07915841  0.51255960  0.11345066    -0.20100
F446        F  0.18306845  0.58404680  0.99209321    -0.20100
F447        F  0.18427736  0.52159953  0.48629439    -0.20500
F448        F  0.21114561  0.54902167  0.02567574    -0.23100
C449        C  0.12110350  0.46399408  0.33343394    -0.06000
C450        C  0.09833755  0.49040749  0.33011407     0.00000
C451        C  0.07972580  0.48951170  0.30161621    -0.08600
C452        C  0.08659367  0.46462284  0.27575374    -0.06000
C453        C  0.11223671  0.44167948  0.27656360    -0.00100
C454        C  0.12864196  0.43968293  0.30709482    -0.08500
C455        C  0.15473898  0.41353901  0.31181662     0.61900
H456        H  0.13443391  0.46430112  0.35609664     0.12500
H457        H  0.07288990  0.46505914  0.25340733     0.12600
C458        C  0.05285724  0.51490081  0.29839625     0.62100
F459        F  0.16405724  0.41230684  0.34492981    -0.23100
F460        F  0.17851940  0.42434487  0.29252137    -0.20400
F461        F  0.14653470  0.37883520  0.30262418    -0.20100
F462        F  0.06201065  0.55039880  0.29542478    -0.20100
F463        F  0.03503513  0.51190913  0.32647037    -0.20500
F464        F  0.03577395  0.50677212  0.27050763    -0.23100
C465        C  0.24349656  0.88406227  0.37281212    -0.06000
C466        C  0.25544641  0.90811603  0.34935637     0.00000
C467        C  0.23790304  0.93808985  0.33847085    -0.08600
C468        C  0.20924537  0.94349803  0.35142967    -0.06000
C469        C  0.19671838  0.91871323  0.37333003    -0.00100
C470        C  0.21380903  0.88810683  0.38418927    -0.10900
C471        C  0.20091996  0.86010707  0.40768378     0.61900
H472        H  0.25732796  0.86172650  0.38157232     0.12500
H473        H  0.19552240  0.96612924  0.34288829     0.12600
C474        C  0.24883038  0.96334461  0.31187394     0.62100
F475        F  0.22206977  0.83441788  0.41733132    -0.23100
F476        F  0.17798086  0.84213933  0.39199820    -0.20400
F477        F  0.19012103  0.87698438  0.43625052    -0.20100
F478        F  0.25263264  0.94356238  0.28268836    -0.20100
F479        F  0.27540896  0.97842529  0.32188785    -0.20500
F480        F  0.22865506  0.99125904  0.30553408    -0.23100
C481        C  0.49839626  0.94231368  0.36166767    -0.06000
C482        C  0.50718341  0.90571881  0.36511664     0.00000
C483        C  0.48620475  0.87817647  0.36004124    -0.08600
C484        C  0.45690646  0.88833113  0.35108734    -0.06000
C485        C  0.44772459  0.92507397  0.34804245    -0.00100
C486        C  0.46882889  0.95267151  0.35395636    -0.08500
C487        C  0.46019073  0.99274578  0.35370011     0.61900
H488        H  0.01348347  0.96441160  0.36730726     0.12500
H489        H  0.44072119  0.86735163  0.34668660     0.12600
C490        C  0.49490470  0.83835716  0.36363894     0.62100
F491        F  0.48316900  0.01432374  0.36486229    -0.23100
F492        F  0.43606379  0.99895438  0.37457825    -0.20400
F493        F  0.45295594  0.00335653  0.32145159    -0.20100
F494        F  0.50381188  0.83144712  0.39623216    -0.20100
F495        F  0.01802240  0.83293834  0.33669902    -0.20500
F496        F  0.47145492  0.81574506  0.35620867    -0.23100
C497        C  0.09811314  0.77662811  0.43533697    -0.06000
C498        C  0.10280663  0.79273338  0.40387285     0.00000
C499        C  0.10752862  0.76951082  0.37565060    -0.08600
C500        C  0.10601604  0.73148585  0.38005532    -0.06000
C501        C  0.09974457  0.71549456  0.41128231    -0.00100
C502        C  0.09618150  0.73876470  0.43971174    -0.08500
C503        C  0.08924532  0.72451665  0.47458163     0.61900
H504        H  0.09483453  0.79426429  0.45681952     0.12500
H505        H  0.10908040  0.71378706  0.35855399     0.12600
C506        C  0.11394084  0.78418363  0.34083683     0.62100
F507        F  0.08166447  0.75087170  0.99741101    -0.23100
F508        F  0.11241250  0.70244097  0.48568580    -0.20400
F509        F  0.06064313  0.70345539  0.97229721    -0.20100
F510        F  0.13745807  0.80792773  0.34224843    -0.20100
F511        F  0.08892710  0.80192288  0.32837117    -0.20500
F512        F  0.12158645  0.75677177  0.31841891    -0.23100
C513        C  0.11904750  0.04705385  0.31748498    -0.06000
C514        C  0.10754498  0.01213207  0.31113544     0.00000
C515        C  0.09903666  0.00330032  0.27790796    -0.08600
C516        C  0.10614132  0.02730187  0.25193794    -0.06000
C517        C  0.12018149  0.06082455  0.25768436    -0.00100
C518        C  0.12486640  0.07197071  0.29128791    -0.08500
C519        C  0.13431419  0.11035968  0.29955334     0.61900
H520        H  0.12419456  0.05443404  0.34308052     0.12500
H521        H  0.10158527  0.01897366  0.22645036     0.12600
C522        C  0.08196771  0.96907314  0.26949846     0.62100
F523        F  0.13255937  0.11744226  0.33361700    -0.23100
F524        F  0.11575321  0.13492688  0.28322362    -0.20400
F525        F  0.16328755  0.11576815  0.28954632    -0.20100
F526        F  0.05861437  0.96519505  0.29171306    -0.20100
F527        F  0.10068122  0.93895778  0.27121012    -0.20500
F528        F  0.07001178  0.97038078  0.23747387    -0.23100
C529        C  0.12514465  0.93831866  0.04427713    -0.06000
C530        C  0.14106082  0.94336163  0.01438819     0.00000
C531        C  0.16631758  0.96618784  0.01527872    -0.08600
C532        C  0.17049137  0.98910819  0.04295368    -0.06000
C533        C  0.15262399  0.98716980  0.07150358    -0.00100
C534        C  0.13094964  0.95943286  0.07329333    -0.08500
C535        C  0.11253123  0.95388706  0.10466567     0.61900
H536        H  0.10629724  0.92037952  0.04382414     0.12500
H537        H  0.18745845  0.00954888  0.04170667     0.12600
C538        C  0.18670994  0.96753050  0.49105201     0.62100
F539        F  0.09273424  0.92572210  0.10092601    -0.23100
F540        F  0.09633713  0.98513144  0.11196257    -0.20400
F541        F  0.13109968  0.94551749  0.13132965    -0.20100
F542        F  0.18398557  0.00024602  0.47428404    -0.20100
F543        F  0.18462498  0.93934352  0.46829962    -0.20500
F544        F  0.21467684  0.96526586  0.50557538    -0.23100
C545        C  0.00453298  0.02881633  0.00834778    -0.06000
C546        C  0.47592503  0.01912849  0.99953937     0.00000
C547        C  0.47235651  0.99210916  0.47071482    -0.08600
C548        C  0.49802104  0.98023322  0.45343381    -0.06000
C549        C  0.02574174  0.99515854  0.46163163    -0.00100
C550        C  0.02896606  0.02102834  0.48752742    -0.08500
C551        C  0.06057766  0.03023156  0.00183695     0.61900
H552        H  0.00680850  0.04744366  0.02928488     0.12500
H553        H  0.49630462  0.95913531  0.43453344     0.12600
C554        C  0.44219303  0.97713794  0.46126614     0.62100
F555        F  0.05883653  0.05339293  0.02923082    -0.23100
F556        F  0.07184316  0.05295899  0.47053433    -0.20400
F557        F  0.07828397  0.00066658  0.01061186    -0.20100
F558        F  0.42285957  0.00531053  0.45286368    -0.20100
F559        F  0.43073940  0.95820752  0.48805422    -0.20500
F560        F  0.44403599  0.95364385  0.43411659    -0.23100
Fe561      Fe  0.10385811  0.90209173  0.86046725     1.65800
Fe562      Fe  0.07821610  0.89669324  0.93875026     1.73200
Fe563      Fe  0.11414983  0.97199831  0.91308837     1.54400
O564        O  0.15528544  0.95346968  0.89269264    -0.81900
O565        O  0.05189443  0.93975496  0.95144882    -0.80200
O566        O  0.14839892  0.89781457  0.86987652    -0.84400
O567        O  0.11173773  0.95005392  0.83441661    -0.79200
O568        O  0.12991246  0.95879725  0.95913633    -0.81000
O569        O  0.04505159  0.88442365  0.90286023    -0.83700
C570        C  0.10671282  0.98352989  0.83955484     0.97000
C571        C  0.16515555  0.92311233  0.88032664     1.04500
O572        O  0.09888237  0.92397750  0.90465154    -1.12700
O573        O  0.10291148  0.84997879  0.92975261    -0.75200
O574        O  0.09768850  0.84812523  0.87522972    -0.78600
O575        O  0.10018605  0.99482263  0.86851324    -0.79300
C576        C  0.10187052  0.83186025  0.90280071     0.95900
O577        O  0.05899138  0.90897042  0.85392104    -0.77300
O578        O  0.10806315  0.90923333  0.97800097    -0.82500
C579        C  0.05250169  0.97388696  0.94853898     0.98500
C580        C  0.12597366  0.93555428  0.98177611     1.04500
O581        O  0.07390075  0.99060671  0.93452758    -0.78100
C582        C  0.03898317  0.89883309  0.87428489     1.02800
Fe583      Fe  0.09408775  0.60093600  0.87162131     1.65800
Fe584      Fe  0.06970205  0.61184813  0.95017200     1.73200
Fe585      Fe  0.10999167  0.53646630  0.92918230     1.54400
O586        O  0.09488905  0.50864362  0.88784247    -0.81900
O587        O  0.09750456  0.59864333  0.99122120    -0.80200
O588        O  0.09872934  0.55016211  0.84835247    -0.84400
O589        O  0.13900831  0.60363192  0.87607622    -0.79200
O590        O  0.07111908  0.51941695  0.95500414    -0.81000
O591        O  0.09508737  0.65662510  0.94045421    -0.83700
C592        C  0.15757883  0.58038348  0.88762829     0.97000
C593        C  0.09659645  0.51728459  0.85734854     1.04500
O594        O  0.09150995  0.58266926  0.91734694    -1.12700
O595        O  0.03721281  0.62637655  0.91422358    -0.75200
O596        O  0.04914639  0.59685077  0.86749226    -0.78600
O597        O  0.14959635  0.55238583  0.90447105    -0.79300
C598        C  0.02967858  0.61072631  0.88689445     0.95900
O599        O  0.09049213  0.65610296  0.88548995    -0.77300
O600        O  0.04314452  0.56989504  0.96175540    -0.82500
C601        C  0.11910140  0.57619150  0.99561299     0.98500
C602        C  0.04696065  0.53590952  0.96407851     1.04500
O603        O  0.12837762  0.55568816  0.97234494    -0.78100
C604        C  0.09508975  0.67327877  0.91278453     1.02800
Fe605      Fe  0.35191199  0.91194698  0.85771812     1.65800
Fe606      Fe  0.33035523  0.90014792  0.77713219     1.73200
Fe607      Fe  0.36646361  0.97696769  0.80060194     1.54400
O608        O  0.35015243  0.00420708  0.84162042    -0.81900
O609        O  0.36331469  0.90835386  0.73999611    -0.80200
O610        O  0.35479654  0.96263107  0.88094918    -0.84400
O611        O  0.39718211  0.90952296  0.85394498    -0.79200
O612        O  0.32808457  0.99492612  0.77411142    -0.81000
O613        O  0.35103766  0.85178131  0.79097844    -0.83700
C614        C  0.41515780  0.93275193  0.84232980     0.97000
C615        C  0.35166554  0.99544993  0.87200791     1.04500
O616        O  0.34966244  0.92980291  0.81145865    -1.12700
O617        O  0.29396999  0.89269345  0.81028628    -0.75200
O618        O  0.30666082  0.91495440  0.86096636    -0.78600
O619        O  0.40644185  0.96077677  0.82547422    -0.79300
C620        C  0.28738778  0.90430171  0.83989042     0.95900
O621        O  0.34922446  0.85683925  0.84582255    -0.77300
O622        O  0.30733845  0.94313255  0.75837044    -0.82500
C623        C  0.38120319  0.93467022  0.73562539     0.98500
C624        C  0.30805267  0.97731140  0.75831007     1.04500
O625        O  0.38468688  0.95920329  0.75731454    -0.78100
C626        C  0.35067153  0.83723379  0.81969907     1.02800
Fe627      Fe  0.34398604  0.60741053  0.86488868     1.65800
Fe628      Fe  0.31642070  0.61412396  0.78732841     1.73200
Fe629      Fe  0.35908196  0.54120068  0.80906223     1.54400
O630        O  0.39837441  0.55764100  0.83410974    -0.81900
O631        O  0.29054876  0.57094782  0.77860845    -0.80200
O632        O  0.38855849  0.61166190  0.85841053    -0.84400
O633        O  0.35099591  0.55736655  0.88885807    -0.79200
O634        O  0.37692218  0.56068713  0.76604891    -0.81000
O635        O  0.28504243  0.62929577  0.82418102    -0.83700
C636        C  0.34773615  0.52423748  0.88075275     0.97000
C637        C  0.40671698  0.58673883  0.84915416     1.04500
O638        O  0.34016333  0.58732666  0.82001175    -1.12700
O639        O  0.34091161  0.66031484  0.79414276    -0.75200
O640        O  0.33854005  0.66195172  0.84935742    -0.78600
O641        O  0.34397277  0.51474612  0.85066687    -0.79300
C642        C  0.34232554  0.67797558  0.82136292     0.95900
O643        O  0.29938927  0.60106358  0.87094289    -0.77300
O644        O  0.34293991  0.59897724  0.74582134    -0.82500
C645        C  0.29567124  0.53727004  0.77552045     0.98500
C646        C  0.36516645  0.57743541  0.74167640     1.04500
O647        O  0.32077402  0.52242176  0.78334860    -0.78100
C648        C  0.27913603  0.61311798  0.85164427     1.02800
Fe649      Fe  0.39858445  0.40617333  0.61618748     1.65800
Fe650      Fe  0.42478187  0.39610476  0.53858452     1.73200
Fe651      Fe  0.38150655  0.46831811  0.55793034     1.54400
O652        O  0.34318846  0.45402375  0.58475902    -0.81900
O653        O  0.45176000  0.43847201  0.53140785    -0.80200
O654        O  0.35373051  0.40194315  0.61128956    -0.84400
O655        O  0.39295770  0.45793540  0.63794687    -0.79200
O656        O  0.36242223  0.44183383  0.51891109    -0.81000
O657        O  0.45489158  0.37832925  0.57583172    -0.83700
C658        C  0.39478714  0.49073531  0.62809138     0.97000
C659        C  0.33521152  0.42579433  0.60090423     1.04500
O660        O  0.40176053  0.42418311  0.57100854    -1.12700
O661        O  0.39850871  0.35154893  0.54585786    -0.75200
O662        O  0.40304798  0.35125009  0.60116484    -0.78600
O663        O  0.39699284  0.49870463  0.59738656    -0.79300
C664        C  0.39894211  0.33440324  0.57352174     0.95900
O665        O  0.44354653  0.41101509  0.62113361    -0.77300
O666        O  0.39881559  0.41321453  0.99557910    -0.82500
C667        C  0.44536476  0.47124700  0.52469560     0.98500
C668        C  0.37455330  0.43138535  0.99274881     1.04500
O669        O  0.41925323  0.48523654  0.52956148    -0.78100
C670        C  0.46243088  0.39402311  0.60317580     1.02800
Fe671      Fe  0.40400730  0.10296917  0.60784191     1.65800
Fe672      Fe  0.42699773  0.11356214  0.52891639     1.73200
Fe673      Fe  0.38889386  0.03896962  0.55015890     1.54400
O674        O  0.40510702  0.01121578  0.59112417    -0.81900
O675        O  0.39897734  0.10190957  0.99015729    -0.80200
O676        O  0.39823639  0.05218459  0.63090452    -0.84400
O677        O  0.35969016  0.10884714  0.60219526    -0.79200
O678        O  0.42716206  0.02092908  0.52347403    -0.81000
O679        O  0.40146071  0.15830698  0.54045069    -0.83700
C680        C  0.34154575  0.08639843  0.58995067     0.97000
C681        C  0.40172641  0.01929552  0.62161441     1.04500
O682        O  0.40665652  0.08459305  0.56190288    -1.12700
O683        O  0.46019309  0.12502050  0.56477122    -0.75200
O684        O  0.44835397  0.09563242  0.61176832    -0.78600
O685        O  0.34976403  0.05678770  0.57497468    -0.79300
C686        C  0.46739304  0.10782361  0.59159320     0.95900
O687        O  0.40906116  0.15818176  0.59480179    -0.77300
O688        O  0.45297216  0.07147712  0.51460688    -0.82500
C689        C  0.37781660  0.07969402  0.98618771     0.98500
C690        C  0.45004355  0.03749632  0.51242778     1.04500
O691        O  0.36872439  0.06057165  0.01009483    -0.78100
C692        C  0.40360370  0.17537038  0.56773172     1.02800
Fe693      Fe  0.14938056  0.40681299  0.61910386     1.65800
Fe694      Fe  0.17391380  0.39402130  0.69722637     1.73200
Fe695      Fe  0.13008247  0.46669282  0.67889230     1.54400
O696        O  0.14448818  0.49821340  0.63971741    -0.81900
O697        O  0.14802319  0.40806068  0.73999523    -0.80200
O698        O  0.14274602  0.45855494  0.59798920    -0.84400
O699        O  0.10517038  0.40024870  0.62309933    -0.79200
O700        O  0.16808778  0.48437434  0.70675262    -0.81000
O701        O  0.14900132  0.34879276  0.68689515    -0.83700
C702        C  0.08553689  0.42203389  0.63432575     0.97000
C703        C  0.14305670  0.49113998  0.60874072     1.04500
O704        O  0.15106851  0.42308839  0.66523832    -1.12700
O705        O  0.20557639  0.37980073  0.66030529    -0.75200
O706        O  0.19382356  0.41367606  0.61588882    -0.78600
O707        O  0.09166503  0.45012040  0.65221944    -0.79300
C708        C  0.21290705  0.39793420  0.63441400     0.95900
O709        O  0.15488050  0.35204474  0.63185021    -0.77300
O710        O  0.19960423  0.43658346  0.70783905    -0.82500
C711        C  0.12473299  0.42786649  0.74381997     0.98500
C712        C  0.19374843  0.46979441  0.71323098     1.04500
O713        O  0.11168845  0.44121709  0.71868568    -0.78100
C714        C  0.14978592  0.33368492  0.65823064     1.02800
Fe715      Fe  0.15368831  0.10356135  0.60686977     1.65800
Fe716      Fe  0.18115685  0.11526007  0.68395507     1.73200
Fe717      Fe  0.13706177  0.04496509  0.66724990     1.54400
O718        O  0.09862209  0.05951679  0.64005913    -0.81900
O719        O  0.20834120  0.07271239  0.69163083    -0.80200
O720        O  0.10951983  0.10984759  0.61222131    -0.84400
O721        O  0.14808537  0.05114670  0.58710086    -0.79200
O722        O  0.11885701  0.07698168  0.70341038    -0.81000
O723        O  0.21078710  0.13004195  0.64552446    -0.83700
C724        C  0.14916561  0.01853456  0.59789099     0.97000
C725        C  0.09084962  0.08785140  0.62340729     1.04500
O726        O  0.15792260  0.08685029  0.65229267    -1.12700
O727        O  0.15431470  0.16016964  0.67612669    -0.75200
O728        O  0.15767933  0.15848965  0.62061167    -0.78600
O729        O  0.15151861  0.01134369  0.62889908    -0.79300
C730        C  0.15363445  0.17612402  0.64791969     0.95900
O731        O  0.19798679  0.09695150  0.60120243    -0.77300
O732        O  0.15754474  0.09925375  0.72805423    -0.82500
C733        C  0.20140049  0.04156670  0.70159193     0.98500
C734        C  0.13327537  0.08197074  0.72975013     1.04500
O735        O  0.17530712  0.02809854  0.69686127    -0.78100
C736        C  0.21757675  0.11122702  0.61947508     1.02800
C737        C  0.16313362  0.27678751  0.62827879    -0.06000
C738        C  0.14752345  0.29339039  0.65491389     0.00000
C739        C  0.13116906  0.27122817  0.67709894    -0.08600
C740        C  0.13285497  0.23313177  0.67302828    -0.06000
C741        C  0.14976586  0.21649725  0.64734750    -0.00100
C742        C  0.16453876  0.23888195  0.62386463    -0.08500
C743        C  0.18268657  0.22334259  0.59481634     0.61900
H744        H  0.17515778  0.29392033  0.61118039     0.12500
H745        H  0.12130981  0.21586645  0.69047310     0.12600
C746        C  0.11178369  0.28735273  0.70474305     0.62100
F747        F  0.19677340  0.25012220  0.57678272    -0.23100
F748        F  0.16417517  0.20517546  0.57291061    -0.20400
F749        F  0.20446718  0.19977442  0.60676947    -0.20100
F750        F  0.09348987  0.31450906  0.69182982    -0.20100
F751        F  0.12950481  0.30154710  0.72979185    -0.20500
F752        F  0.09374954  0.26151773  0.71903730    -0.23100
C753        C  0.01744629  0.13238058  0.59601882    -0.06000
C754        C  0.49884509  0.10203108  0.60010795     0.00000
C755        C  0.01030954  0.06796584  0.60678373    -0.08600
C756        C  0.03993287  0.06532130  0.61709414    -0.06000
C757        C  0.05909759  0.09484967  0.61534940    -0.00100
C758        C  0.04764918  0.12939858  0.60460030    -0.08500
C759        C  0.06639899  0.16346361  0.60260442     0.61900
H760        H  0.00792078  0.15837704  0.58850355     0.12500
H761        H  0.04842580  0.03908617  0.62535697     0.12600
C762        C  0.49147610  0.03336568  0.60830781     0.62100
F763        F  0.04923033  0.19430872  0.59640609    -0.23100
F764        F  0.08673494  0.16005585  0.57672553    -0.20400
F765        F  0.08111780  0.16894326  0.63265851    -0.20100
F766        F  0.47473600  0.03126201  0.57937118    -0.20100
F767        F  0.47278150  0.03499027  0.63565123    -0.20500
F768        F  0.50842947  0.00169507  0.61061137    -0.23100
C769        C  0.29068700  0.06479368  0.59722152    -0.06000
C770        C  0.30954968  0.09443302  0.59489242     0.00000
C771        C  0.29752298  0.13043134  0.59808155    -0.08600
C772        C  0.26743419  0.13484387  0.60700848    -0.06000
C773        C  0.24888898  0.10496509  0.61011159    -0.00100
C774        C  0.26035316  0.06937079  0.60387184    -0.08500
C775        C  0.24082812  0.03613571  0.60354657     0.61900
H776        H  0.29995933  0.03771017  0.59378782     0.12500
H777        H  0.25798541  0.16176823  0.61102577     0.12600
C778        C  0.31555180  0.16418837  0.59089156     0.62100
F779        F  0.25723449  0.00406562  0.60096379    -0.23100
F780        F  0.22205935  0.03812353  0.57624532    -0.20400
F781        F  0.22426073  0.03459609  0.63254468    -0.20100
F782        F  0.33105735  0.15973519  0.56116275    -0.20100
F783        F  0.33526026  0.17054392  0.61683250    -0.20500
F784        F  0.29745589  0.19480417  0.58754365    -0.23100
C785        C  0.25330425  0.43946625  0.62311894    -0.06000
C786        C  0.24435405  0.40335502  0.62625688     0.00000
C787        C  0.26477164  0.37462705  0.62013834    -0.08600
C788        C  0.29401611  0.38333457  0.61106734    -0.06000
C789        C  0.30330436  0.41967272  0.60828795    -0.00100
C790        C  0.28253276  0.44834599  0.61458077    -0.08500
C791        C  0.29109282  0.48806312  0.61384324     0.61900
H792        H  0.23701516  0.46088700  0.62789942     0.12500
H793        H  0.30994554  0.36160574  0.60609425     0.12600
C794        C  0.25549678  0.33522226  0.62231448     0.62100
F795        F  0.26816808  0.51080293  0.62464364    -0.23100
F796        F  0.29827623  0.49804730  0.58149444    -0.20400
F797        F  0.31512519  0.49333668  0.63484812    -0.20100
F798        F  0.23150015  0.32938536  0.60129929    -0.20100
F799        F  0.24752987  0.32716604  0.65488281    -0.20500
F800        F  0.27828064  0.31152867  0.61295489    -0.23100
C801        C  0.01567927  0.39644328  0.58662378    -0.06000
C802        C  0.49427506  0.39469935  0.61291925     0.00000
C803        C  0.50416159  0.40007724  0.64642081    -0.08600
C804        C  0.03366330  0.41232770  0.65195772    -0.06000
C805        C  0.05444959  0.41350490  0.62588627    -0.00100
C806        C  0.04588086  0.40277758  0.59298467    -0.08500
C807        C  0.06831330  0.39637795  0.56485134     0.61900
H808        H  0.00839043  0.39094607  0.56123747     0.12500
H809        H  0.04101028  0.41814005  0.67730044     0.12600
C810        C  0.48629238  0.39056093  0.67734639     0.62100
F811        F  0.05451137  0.39299947  0.53395027    -0.23100
F812        F  0.08409847  0.36449798  0.57093850    -0.20400
F813        F  0.08801992  0.42472353  0.56279002    -0.20100
F814        F  0.46041761  0.37236307  0.66998675    -0.20100
F815        F  0.47945054  0.42183110  0.69513170    -0.20500
F816        F  0.50333776  0.36794107  0.69763297    -0.23100
C817        C  0.39241447  0.23351766  0.59808043    -0.06000
C818        C  0.40044486  0.21605138  0.56790975     0.00000
C819        C  0.40630334  0.23790255  0.53925865    -0.08600
C820        C  0.40464473  0.27601375  0.54246220    -0.06000
C821        C  0.39741680  0.29359829  0.57282573    -0.00100
C822        C  0.39051445  0.27178042  0.60111571    -0.08500
C823        C  0.38089112  0.28826807  0.63444209     0.61900
H824        H  0.38779561  0.21677889  0.61964563     0.12500
H825        H  0.41243433  0.29292729  0.02324677     0.12600
C826        C  0.42110191  0.22199205  0.00960335     0.62100
F827        F  0.37058687  0.26223231  0.65632934    -0.23100
F828        F  0.35804722  0.31331581  0.62935701    -0.20400
F829        F  0.40475077  0.30504405  0.64959860    -0.20100
F830        F  0.39949566  0.20281343  0.99267654    -0.20100
F831        F  0.44489498  0.19914312  0.01729153    -0.20500
F832        F  0.43145348  0.24826420  0.98799269    -0.23100
C833        C  0.37088315  0.46694559  0.90253800    -0.06000
C834        C  0.35007967  0.49562694  0.90687542     0.00000
C835        C  0.33255942  0.49668831  0.93614031    -0.08600
C836        C  0.33937493  0.47224958  0.96212324    -0.06000
C837        C  0.36320325  0.44666397  0.96003801    -0.00100
C838        C  0.37740435  0.44180940  0.92846098    -0.08500
C839        C  0.39913746  0.41062010  0.92181036     0.61900
H840        H  0.38306695  0.46537253  0.87915217     0.12500
H841        H  0.32690920  0.47472112  0.98521870     0.12600
C842        C  0.30641953  0.52312652  0.93966567     0.62100
F843        F  0.40545911  0.40714044  0.88796142    -0.23100
F844        F  0.38684668  0.37840730  0.93235796    -0.20400
F845        F  0.42564012  0.41611889  0.93856498    -0.20100
F846        F  0.28784170  0.51977347  0.91218167    -0.20100
F847        F  0.31640745  0.55837167  0.94163214    -0.20500
F848        F  0.28983955  0.51643271  0.96814024    -0.23100
C849        C  0.40434578  0.54809162  0.70658384    -0.06000
C850        C  0.37678588  0.56715957  0.70757208     0.00000
C851        C  0.35886689  0.56737548  0.67807396    -0.08600
C852        C  0.36722298  0.54439177  0.65103701    -0.06000
C853        C  0.39196429  0.52064021  0.65310801    -0.00100
C854        C  0.41187412  0.52421028  0.68019544    -0.08500
C855        C  0.44035099  0.50170328  0.68174090     0.61900
H856        H  0.41883500  0.54918029  0.72825764     0.12500
H857        H  0.35319574  0.54277325  0.62901322     0.12600
C858        C  0.33036023  0.58996007  0.67542016     0.62100
F859        F  0.45871194  0.51265302  0.70767032    -0.23100
F860        F  0.45586085  0.50498578  0.65198454    -0.20400
F861        F  0.43342554  0.46572651  0.68668511    -0.20100
F862        F  0.33623390  0.62585374  0.68295963    -0.20100
F863        F  0.30918144  0.57706787  0.69728589    -0.20500
F864        F  0.31841775  0.58883668  0.64340902    -0.23100
C865        C  0.24147785  0.52847220  0.77049492    -0.06000
C866        C  0.27041804  0.51643255  0.76147594     0.00000
C867        C  0.27376195  0.49041725  0.73555093    -0.08600
C868        C  0.24801143  0.47811093  0.71920522    -0.06000
C869        C  0.21900271  0.49018359  0.72813668    -0.00100
C870        C  0.21570242  0.51608582  0.75418596    -0.08500
C871        C  0.18535931  0.53061370  0.76489722     0.61900
H872        H  0.23925011  0.54857514  0.79027526     0.12500
H873        H  0.25038014  0.45824410  0.69924929     0.12600
C874        C  0.30416959  0.47598559  0.72475068     0.62100
F875        F  0.18732636  0.55495217  0.79135277    -0.23100
F876        F  0.16767258  0.50231127  0.77496755    -0.20400
F877        F  0.17194400  0.54851789  0.73830670    -0.20100
F878        F  0.31796382  0.45864963  0.75141499    -0.20100
F879        F  0.32161048  0.50426453  0.71412109    -0.20500
F880        F  0.30220028  0.45117944  0.69866900    -0.23100
C881        C  0.24025382  0.99346278  0.70209085    -0.06000
C882        C  0.22598172  0.02208523  0.71897362     0.00000
C883        C  0.24028838  0.03823477  0.74709328    -0.08600
C884        C  0.26856244  0.02519912  0.75719823    -0.06000
C885        C  0.28252001  0.99575914  0.74100919    -0.00100
C886        C  0.26837474  0.98005735  0.71236477    -0.08500
C887        C  0.28313579  0.95000999  0.69170757     0.61900
H888        H  0.22959359  0.98243017  0.68000280     0.12500
H889        H  0.27921890  0.03661464  0.77911180     0.12600
C890        C  0.22500721  0.06813436  0.76743053     0.62100
F891        F  0.27005855  0.94667065  0.66040281    -0.23100
F892        F  0.28067139  0.91701243  0.70782696    -0.20400
F893        F  0.31282837  0.95766971  0.68688259    -0.20100
F894        F  0.19672717  0.05724301  0.77594965    -0.20100
F895        F  0.22311673  0.09988982  0.74913813    -0.20500
F896        F  0.24022383  0.07561571  0.79681745    -0.23100
C897        C  0.36106678  0.77582632  0.79467066    -0.06000
C898        C  0.35089673  0.79629336  0.82240345     0.00000
C899        C  0.33918445  0.77714387  0.85038996    -0.08600
C900        C  0.33748490  0.73885550  0.84887786    -0.06000
C901        C  0.34685061  0.71850667  0.82076783    -0.00100
C902        C  0.35948089  0.73748600  0.79325849    -0.08500
C903        C  0.37172894  0.71784388  0.76247783     0.61900
H904        H  0.37007344  0.79032985  0.77353615     0.12500
H905        H  0.32802922  0.72438952  0.86976989     0.12600
C906        C  0.32760059  0.79651893  0.88163708     0.62100
F907        F  0.38643604  0.74110394  0.74118792    -0.23100
F908        F  0.34873792  0.70254908  0.74447246    -0.20400
F909        F  0.39185010  0.69102879  0.77221137    -0.20100
F910        F  0.30530383  0.82106736  0.87298976    -0.20100
F911        F  0.35061917  0.81443912  0.89731823    -0.20500
F912        F  0.31578731  0.77268963  0.90466298    -0.23100
C913        C  0.37902534  0.93664904  0.67348489    -0.06000
C914        C  0.39580122  0.94211652  0.70274610     0.00000
C915        C  0.41944114  0.96735772  0.70143287    -0.08600
C916        C  0.42053803  0.99215195  0.67479345    -0.06000
C917        C  0.40147104  0.98960810  0.64711995    -0.00100
C918        C  0.38174509  0.95972228  0.64531599    -0.08500
C919        C  0.36202589  0.95375126  0.61492879     0.61900
H920        H  0.36161274  0.91667106  0.67409023     0.12500
H921        H  0.43632430  0.01401955  0.67597843     0.12600
C922        C  0.44283545  0.97053885  0.72871653     0.62100
F923        F  0.34343688  0.92449476  0.61914567    -0.23100
F924        F  0.37949826  0.94679909  0.58705668    -0.20400
F925        F  0.34445905  0.98432110  0.60932363    -0.20100
F926        F  0.44220501  0.94169668  0.75085234    -0.20100
F927        F  0.43840142  0.00266733  0.74625704    -0.20500
F928        F  0.47080976  0.97082420  0.71426173    -0.23100
C929        C  0.37415941  0.05129710  0.89502621    -0.06000
C930        C  0.35220714  0.02470006  0.89764516     0.00000
C931        C  0.33283690  0.02550743  0.92541092    -0.08600
C932        C  0.33914264  0.04917249  0.95220505    -0.06000
C933        C  0.36476670  0.07102706  0.95247175    -0.00100
C934        C  0.38070158  0.07488659  0.92197234    -0.08500
C935        C  0.40545367  0.10204908  0.91807448     0.61900
H936        H  0.38776486  0.05158083  0.87264336     0.12500
H937        H  0.32564383  0.04789963  0.97461787     0.12600
C938        C  0.30614729  0.00082974  0.92706127     0.62100
F939        F  0.41369153  0.10578411  0.88483447    -0.23100
F940        F  0.43027138  0.09077641  0.93600975    -0.20400
F941        F  0.39587634  0.13580056  0.92950809    -0.20100
F942        F  0.31555621  0.96527547  0.93177329    -0.20100
F943        F  0.29008652  0.00319496  0.89748563    -0.20500
F944        F  0.28727670  0.01040880  0.95316024    -0.23100
C945        C  0.99285843  0.52494611  0.96583070    -0.06000
C946        C  0.02136048  0.51653167  0.97877712     0.00000
C947        C  0.02356057  0.49758509  0.00942670    -0.08600
C948        C  0.99761461  0.48659021  0.52316058    -0.06000
C949        C  0.47037972  0.49197906  0.51027353    -0.00100
C950        C  0.46687024  0.51236012  0.97890540    -0.08500
C951        C  0.43713916  0.52095960  0.96261673     0.61900
H952        H  0.99142214  0.54125155  0.94330425     0.12500
H953        H  0.99946402  0.47046874  0.54577192     0.12600
C954        C  0.05314883  0.49203540  0.02691435     0.62100
F955        F  0.44032045  0.53862094  0.93228763    -0.23100
F956        F  0.42259404  0.54440432  0.48733803    -0.20400
F957        F  0.42216787  0.48921191  0.95670475    -0.20100
F958        F  0.06750518  0.52548153  0.52842622    -0.20100
F959        F  0.07120002  0.46912470  0.00803662    -0.20500
F960        F  0.05030865  0.47775206  0.55595802    -0.23100
C961        C  0.49152316  0.59019928  0.84718233    -0.06000
C962        C  0.49778340  0.60758879  0.87804314     0.00000
C963        C  0.47349987  0.61804842  0.89908270    -0.08600
C964        C  0.44442752  0.61014863  0.88843407    -0.06000
C965        C  0.43848370  0.59212147  0.85803058    -0.00100
C966        C  0.46243920  0.58209797  0.83685106    -0.08500
C967        C  0.45751409  0.56372038  0.80315091     0.61900
H968        H  0.00985380  0.57962452  0.83115299     0.12500
H969        H  0.42576543  0.61760942  0.90430333     0.12600
C970        C  0.47753180  0.63714791  0.93268763     0.62100
F971        F  0.48365386  0.55985993  0.78507029    -0.23100
F972        F  0.43777849  0.58428923  0.78417247    -0.20400
F973        F  0.44623418  0.52941032  0.80793821    -0.20100
F974        F  0.99312157  0.67173825  0.92404570    -0.20100
F975        F  0.99159171  0.61888904  0.95288121    -0.20500
F976        F  0.45060193  0.64534253  0.94801931    -0.23100
C977        C  0.19777401  0.62407307  0.87609358    -0.06000
C978        C  0.18959223  0.58745490  0.88053353     0.00000
C979        C  0.21136087  0.55961314  0.87540021    -0.08600
C980        C  0.24026023  0.56957831  0.86586679    -0.06000
C981        C  0.24800910  0.60599702  0.86102563    -0.00100
C982        C  0.22661587  0.63381555  0.86625853    -0.08500
C983        C  0.23448626  0.67350150  0.86214040     0.61900
H984        H  0.18120594  0.64530887  0.88020218     0.12500
H985        H  0.25717171  0.54879364  0.86154041     0.12600
C986        C  0.20424622  0.51962605  0.87896964     0.62100
F987        F  0.21105381  0.69651902  0.87083569    -0.23100
F988        F  0.24178654  0.68020586  0.82909741    -0.20400
F989        F  0.25850947  0.68161717  0.88242961    -0.20100
F990        F  0.18035260  0.51108017  0.85867243    -0.20100
F991        F  0.19749509  0.51214781  0.91202242    -0.20500
F992        F  0.22799712  0.49736145  0.86971862    -0.23100
C993        C  0.11236621  0.57031404  0.55641314    -0.06000
C994        C  0.13175773  0.56894293  0.52884025     0.00000
C995        C  0.15882628  0.54869407  0.53222630    -0.08600
C996        C  0.16209977  0.52394863  0.55888742    -0.06000
C997        C  0.14067176  0.52162408  0.58423074    -0.00100
C998        C  0.11628761  0.54682699  0.58417136    -0.08500
C999        C  0.09311733  0.54689390  0.61182719     0.61900
H1000       H  0.09223928  0.58673081  0.55435417     0.12500
H1001       H  0.18147754  0.50602155  0.55974563     0.12600
C1002       C  0.18413402  0.55150267  0.50737853     0.62100
F1003       F  0.07063457  0.57233231  0.60619415    -0.23100
F1004       F  0.10637135  0.55514393  0.64216480    -0.20400
F1005       F  0.08029471  0.51310521  0.61375976    -0.20100
F1006       F  0.18170510  0.58287428  0.48846555    -0.20100
F1007       F  0.18263327  0.52298584  0.98622711    -0.20500
F1008       F  0.21100346  0.55246006  0.52437629    -0.23100
C1009       C  0.12205305  0.46210633  0.83457068    -0.06000
C1010       C  0.09874756  0.48789176  0.83168275     0.00000
C1011       C  0.07969169  0.48630550  0.80357580    -0.08600
C1012       C  0.08681835  0.46184657  0.77745530    -0.06000
C1013       C  0.11316964  0.44018768  0.77757869    -0.00100
C1014       C  0.12980690  0.43823403  0.80794737    -0.08500
C1015       C  0.15628419  0.41256539  0.81219943     0.61900
H1016       H  0.13560985  0.46263948  0.85705335     0.12500
H1017       H  0.07285084  0.46186689  0.75530840     0.12600
C1018       C  0.05217040  0.51065393  0.80093062     0.62100
F1019       F  0.16580971  0.41113722  0.84523204    -0.23100
F1020       F  0.17979847  0.42402300  0.79283126    -0.20400
F1021       F  0.14847134  0.37780282  0.80272354    -0.20100
F1022       F  0.06038501  0.54648173  0.79773558    -0.20100
F1023       F  0.03493360  0.50701531  0.82939005    -0.20500
F1024       F  0.03484107  0.50182284  0.77342059    -0.23100
C1025       C  0.24363791  0.88314612  0.87223356    -0.06000
C1026       C  0.25585574  0.90824766  0.85001574     0.00000
C1027       C  0.23907205  0.93960587  0.84113409    -0.08600
C1028       C  0.21028154  0.94452073  0.85382823    -0.06000
C1029       C  0.19730967  0.91847738  0.87413380    -0.00100
C1030       C  0.21417150  0.88733463  0.88406789    -0.10900
C1031       C  0.20141110  0.85910168  0.90740878     0.61900
H1032       H  0.25715963  0.86001986  0.87980774     0.12500
H1033       H  0.19682706  0.96774835  0.84614581     0.12600
C1034       C  0.25059298  0.96644500  0.81618901     0.62100
F1035       F  0.22283586  0.83393404  0.91743974    -0.23100
F1036       F  0.17893987  0.84059264  0.89144606    -0.20400
F1037       F  0.19006483  0.87581084  0.93581024    -0.20100
F1038       F  0.25202602  0.94920829  0.78544164    -0.20100
F1039       F  0.27844592  0.97823530  0.82569299    -0.20500
F1040       F  0.23200173  0.99661277  0.81332466    -0.23100
C1041       C  0.49798796  0.94304866  0.86305682    -0.06000
C1042       C  0.50701734  0.90647566  0.86596238     0.00000
C1043       C  0.48631353  0.87882206  0.86006632    -0.08600
C1044       C  0.45694591  0.88884610  0.85127791    -0.06000
C1045       C  0.44747725  0.92555516  0.84890319    -0.00100
C1046       C  0.46840436  0.95326578  0.85521922    -0.08500
C1047       C  0.45963425  0.99330763  0.85499915     0.61900
H1048       H  0.01528563  0.96356959  0.86549389     0.12500
H1049       H  0.44094521  0.86776963  0.84641837     0.12600
C1050       C  0.49541149  0.83903371  0.86257297     0.62100
F1051       F  0.48243582  0.01495411  0.86651535    -0.23100
F1052       F  0.43528397  0.99939013  0.87555603    -0.20400
F1053       F  0.45267994  0.00396657  0.82268802    -0.20100
F1054       F  0.50429889  0.83118891  0.89499192    -0.20100
F1055       F  0.01897028  0.83112771  0.84159497    -0.20500
F1056       F  0.47223399  0.81631124  0.85435770    -0.23100
C1057       C  0.09728340  0.77499000  0.93569632    -0.06000
C1058       C  0.10330672  0.79098205  0.90449172     0.00000
C1059       C  0.10900677  0.76762375  0.87657061    -0.08600
C1060       C  0.10712748  0.72959978  0.88093746    -0.06000
C1061       C  0.09961772  0.71374582  0.91184810    -0.00100
C1062       C  0.09502065  0.73714045  0.94002564    -0.08500
C1063       C  0.08659764  0.72303742  0.97452032     0.61900
H1064       H  0.09322529  0.79272868  0.95694968     0.12500
H1065       H  0.11095004  0.71178398  0.85966067     0.12600
C1066       C  0.11694569  0.78214903  0.84213611     0.62100
F1067       F  0.08555752  0.75223051  0.49786675    -0.23100
F1068       F  0.10936858  0.70127370  0.98706668    -0.20400
F1069       F  0.06308329  0.70522646  0.47376540    -0.20100
F1070       F  0.14042085  0.80581845  0.84477392    -0.20100
F1071       F  0.09255375  0.79994425  0.82829419    -0.20500
F1072       F  0.12548281  0.75461413  0.82023544    -0.23100
C1073       C  0.11982106  0.04574918  0.81892371    -0.06000
C1074       C  0.11016012  0.01017703  0.81151081     0.00000
C1075       C  0.10512945  0.00066442  0.77749706    -0.08600
C1076       C  0.11302160  0.02530968  0.75237329    -0.06000
C1077       C  0.12437610  0.05999364  0.75951546    -0.00100
C1078       C  0.12640236  0.07116115  0.79339488    -0.08500
C1079       C  0.13375074  0.11004978  0.80239647     0.61900
H1080       H  0.12263838  0.05340742  0.84491137     0.12500
H1081       H  0.11092622  0.01697052  0.72645895     0.12600
C1082       C  0.09087344  0.96507608  0.76722855     0.62100
F1083       F  0.13171452  0.11627351  0.83657899    -0.23100
F1084       F  0.11389478  0.13339585  0.78646766    -0.20400
F1085       F  0.16232979  0.11794279  0.79242029    -0.20100
F1086       F  0.06586476  0.95920393  0.78654879    -0.20100
F1087       F  0.11095762  0.93656654  0.77122931    -0.20500
F1088       F  0.08192890  0.96542093  0.73396519    -0.23100
C1089       C  0.11864654  0.94169030  0.54376184    -0.06000
C1090       C  0.13706851  0.94448434  0.51545655     0.00000
C1091       C  0.16311390  0.96574846  0.51808254    -0.08600
C1092       C  0.16672408  0.98850713  0.54598571    -0.06000
C1093       C  0.14686381  0.98853742  0.57290350    -0.00100
C1094       C  0.12312348  0.96343730  0.57264579    -0.08500
C1095       C  0.10094311  0.96209765  0.60119568     0.61900
H1096       H  0.09891809  0.92539403  0.54176301     0.12500
H1097       H  0.18469023  0.00735528  0.54602060     0.12600
C1098       C  0.18817359  0.96941750  0.98657052     0.62100
F1099       F  0.07881995  0.93709701  0.59530645    -0.23100
F1100       F  0.08748846  0.99578167  0.60513680    -0.20400
F1101       F  0.11538853  0.95248992  0.63056098    -0.20100
F1102       F  0.18279687  0.00161948  0.96968479    -0.20100
F1103       F  0.18626119  0.94070432  0.96433977    -0.20500
F1104       F  0.21694565  0.96951148  0.99902094    -0.23100
C1105       C  0.00343390  0.03262948  0.50503673    -0.06000
C1106       C  0.47554310  0.01835716  0.49637729     0.00000
C1107       C  0.47275305  0.99466340  0.97242656    -0.08600
C1108       C  0.49852046  0.98288617  0.95530634    -0.06000
C1109       C  0.02676152  0.99345563  0.96338529    -0.00100
C1110       C  0.03010353  0.01745688  0.99074779    -0.08500
C1111       C  0.05927538  0.03534248  0.49745936     0.61900
H1112       H  0.00561046  0.05268983  0.52482291     0.12500
H1113       H  0.49670268  0.96347814  0.93493568     0.12600
C1114       C  0.44245326  0.98147894  0.96134304     0.62100
F1115       F  0.05739827  0.05979757  0.52387878    -0.23100
F1116       F  0.07391007  0.04873884  0.97592540    -0.20400
F1117       F  0.07772239  0.00682028  0.50719368    -0.20100
F1118       F  0.42433436  0.01080387  0.95296068    -0.20100
F1119       F  0.42950719  0.96232562  0.98709049    -0.20500
F1120       F  0.44443377  0.95869572  0.93372175    -0.23100
Fe1121     Fe  0.60339068  0.90114217  0.36034564     1.65800
Fe1122     Fe  0.57775731  0.89688971  0.43866393     1.73200
Fe1123     Fe  0.61401303  0.97162214  0.41217797     1.54400
O1124       O  0.65495409  0.95256830  0.39218276    -0.81900
O1125       O  0.55161271  0.94029748  0.45038032    -0.80200
O1126       O  0.64792381  0.89671639  0.36972831    -0.84400
O1127       O  0.61159706  0.94857182  0.33355880    -0.79200
O1128       O  0.62945429  0.95943550  0.45875226    -0.81000
O1129       O  0.54468533  0.88397152  0.40289202    -0.83700
C1130       C  0.60685958  0.98214451  0.33843145     0.97000
C1131       C  0.66468763  0.92218712  0.37982128     1.04500
O1132       O  0.59862170  0.92356317  0.40430972    -1.12700
O1133       O  0.60226635  0.84985278  0.43040459    -0.75200
O1134       O  0.59684890  0.84761249  0.37587565    -0.78600
O1135       O  0.60030181  0.99373303  0.36726857    -0.79300
C1136       C  0.60104938  0.83156996  0.40354432     0.95900
O1137       O  0.55855121  0.90822649  0.35381727    -0.77300
O1138       O  0.60730700  0.91019414  0.47794238    -0.82500
C1139       C  0.55227131  0.97433936  0.44673615     0.98500
C1140       C  0.62503704  0.93670119  0.48174378     1.04500
O1141       O  0.57380944  0.99072018  0.43276502    -0.78100
C1142       C  0.53857149  0.89817298  0.37425232     1.02800
Fe1143     Fe  0.59449168  0.60093826  0.37144493     1.65800
Fe1144     Fe  0.57013989  0.61125251  0.44996591     1.73200
Fe1145     Fe  0.61123190  0.53673922  0.42894631     1.54400
O1146       O  0.59574572  0.50888543  0.38793608    -0.81900
O1147       O  0.59790321  0.59778163  0.49117950    -0.80200
O1148       O  0.59950978  0.55020609  0.34823326    -0.84400
O1149       O  0.63929903  0.60431082  0.37578000    -0.79200
O1150       O  0.57280963  0.51920492  0.45509655    -0.81000
O1151       O  0.59527245  0.65626105  0.44058717    -0.83700
C1152       C  0.65807738  0.58116380  0.38703190     0.97000
C1153       C  0.59725864  0.51740223  0.35741576     1.04500
O1154       O  0.59224317  0.58259140  0.41713825    -1.12700
O1155       O  0.53760088  0.62570820  0.41388774    -0.75200
O1156       O  0.54965078  0.59614211  0.36725776    -0.78600
O1157       O  0.65039040  0.55300135  0.40376919    -0.79300
C1158       C  0.53010920  0.60990693  0.38658685     0.95900
O1159       O  0.59038141  0.65599302  0.38560634    -0.77300
O1160       O  0.54388899  0.56901833  0.46088806    -0.82500
C1161       C  0.62002099  0.57600425  0.49542139     0.98500
C1162       C  0.54827555  0.53518423  0.46353952     1.04500
O1163       O  0.62992754  0.55638048  0.47182864    -0.78100
C1164       C  0.59490498  0.67306275  0.41299119     1.02800
Fe1165     Fe  0.85123976  0.91294465  0.35707444     1.65800
Fe1166     Fe  0.82992164  0.90058953  0.27660378     1.73200
Fe1167     Fe  0.86616453  0.97728880  0.29970215     1.54400
O1168       O  0.84954596  0.00477155  0.34034995    -0.81900
O1169       O  0.86277968  0.90840444  0.23942744    -0.80200
O1170       O  0.85496790  0.96364219  0.37994146    -0.84400
O1171       O  0.89648768  0.90967207  0.35319950    -0.79200
O1172       O  0.82810246  0.99518008  0.27290490    -0.81000
O1173       O  0.85068246  0.85250808  0.29090185    -0.83700
C1174       C  0.91449288  0.93296526  0.34173156     0.97000
C1175       C  0.85166730  0.99633224  0.37074982     1.04500
O1176       O  0.84920868  0.93038923  0.31072678    -1.12700
O1177       O  0.79357961  0.89355777  0.30976579    -0.75200
O1178       O  0.80599656  0.91694830  0.36010374    -0.78600
O1179       O  0.90584774  0.96108374  0.32498503    -0.79300
C1180       C  0.78683441  0.90587698  0.33906791     0.95900
O1181       O  0.84781270  0.85784476  0.34566828    -0.77300
O1182       O  0.80704798  0.94344302  0.25760830    -0.82500
C1183       C  0.88084195  0.93450622  0.23506662     0.98500
C1184       C  0.80795980  0.97758719  0.25732283     1.04500
O1185       O  0.88453641  0.95902050  0.25672723    -0.78100
C1186       C  0.84981702  0.83813711  0.31966898     1.02800
Fe1187     Fe  0.84412070  0.60864016  0.36421924     1.65800
Fe1188     Fe  0.81637846  0.61555334  0.28668111     1.73200
Fe1189     Fe  0.85856366  0.54199160  0.30873915     1.54400
O1190       O  0.89848043  0.55892649  0.33231819    -0.81900
O1191       O  0.79040323  0.57231725  0.27735552    -0.80200
O1192       O  0.88854491  0.61277717  0.35697319    -0.84400
O1193       O  0.85136328  0.55893613  0.38863522    -0.79200
O1194       O  0.87534414  0.56041054  0.26497264    -0.81000
O1195       O  0.78511483  0.63050362  0.32358598    -0.83700
C1196       C  0.84835688  0.52567237  0.38099652     0.97000
C1197       C  0.90677775  0.58814835  0.34723300     1.04500
O1198       O  0.83995562  0.58841000  0.31943457    -1.12700
O1199       O  0.84090168  0.66175147  0.29375589    -0.75200
O1200       O  0.83854307  0.66304268  0.34894776    -0.78600
O1201       O  0.84456792  0.51576099  0.35104214    -0.79300
C1202       C  0.84236816  0.67918814  0.32108673     0.95900
O1203       O  0.79958487  0.60255627  0.37052969    -0.77300
O1204       O  0.84297967  0.60113155  0.24524328    -0.82500
C1205       C  0.79491568  0.53836359  0.27564557     0.98500
C1206       C  0.86452404  0.57866194  0.24100205     1.04500
O1207       O  0.81961641  0.52317869  0.28448136    -0.78100
C1208       C  0.77932235  0.61457098  0.35118535     1.02800
Fe1209     Fe  0.89748838  0.40650283  0.11747156     1.65800
Fe1210     Fe  0.92315683  0.39661672  0.03970359     1.73200
Fe1211     Fe  0.88033089  0.46912362  0.05948754     1.54400
O1212       O  0.84201592  0.45511761  0.08683714    -0.81900
O1213       O  0.95016970  0.43907603  0.03231969    -0.80200
O1214       O  0.85258751  0.40276490  0.11306328    -0.84400
O1215       O  0.89235331  0.45815879  0.13940097    -0.79200
O1216       O  0.86072326  0.44376939  0.02010564    -0.81000
O1217       O  0.95352596  0.37860366  0.07655864    -0.83700
C1218       C  0.89465938  0.49083078  0.12942422     0.97000
C1219       C  0.83410034  0.42683795  0.10302790     1.04500
O1220       O  0.90029216  0.42459253  0.07223417    -1.12700
O1221       O  0.89690890  0.35204260  0.04702640    -0.75200
O1222       O  0.90150828  0.35153564  0.10231622    -0.78600
O1223       O  0.89682994  0.49867673  0.09874028    -0.79300
C1224       C  0.89736267  0.33478797  0.07462284     0.95900
O1225       O  0.94250826  0.41107676  0.12202722    -0.77300
O1226       O  0.89926666  0.41454609  0.49638622    -0.82500
C1227       C  0.94388708  0.47193743  0.02574302     0.98500
C1228       C  0.87515839  0.43305589  0.49378819     1.04500
O1229       O  0.91784951  0.48599027  0.03080853    -0.78100
C1230       C  0.96126304  0.39410291  0.10390937     1.02800
Fe1231     Fe  0.90578757  0.10402763  0.10973936     1.65800
Fe1232     Fe  0.92835623  0.11380563  0.03074751     1.73200
Fe1233     Fe  0.88847061  0.04109751  0.05179456     1.54400
O1234       O  0.90525487  0.01234976  0.09173279    -0.81900
O1235       O  0.89885136  0.10256724  0.48908541    -0.80200
O1236       O  0.90019833  0.05292951  0.13233110    -0.84400
O1237       O  0.86147366  0.11042845  0.10581467    -0.79200
O1238       O  0.92608470  0.02255072  0.02367399    -0.81000
O1239       O  0.90222976  0.15852482  0.04120489    -0.83700
C1240       C  0.84283308  0.08826904  0.09424455     0.97000
C1241       C  0.90259969  0.02008306  0.12240080     1.04500
O1242       O  0.90740114  0.08576626  0.06379959    -1.12700
O1243       O  0.96029607  0.12739747  0.06664320    -0.75200
O1244       O  0.95021187  0.09613325  0.11257427    -0.78600
O1245       O  0.85038632  0.05896885  0.07840165    -0.79300
C1246       C  0.96865312  0.10827511  0.09175306     0.95900
O1247       O  0.91029935  0.15911174  0.09572431    -0.77300
O1248       O  0.95496660  0.07124977  0.01898562    -0.82500
C1249       C  0.87769490  0.08056042  0.48470801     0.98500
C1250       C  0.95047114  0.03770416  0.01503062     1.04500
O1251       O  0.86798742  0.06163258  0.50847455    -0.78100
C1252       C  0.90414729  0.17586067  0.06850482     1.02800
Fe1253     Fe  0.64820877  0.40692417  0.12005335     1.65800
Fe1254     Fe  0.67276160  0.39336073  0.19804979     1.73200
Fe1255     Fe  0.62908952  0.46639590  0.18019906     1.54400
O1256       O  0.64351506  0.49825924  0.14128040    -0.81900
O1257       O  0.64696968  0.40706456  0.24077946    -0.80200
O1258       O  0.64171675  0.45869792  0.09944486    -0.84400
O1259       O  0.60381926  0.40061755  0.12388416    -0.79200
O1260       O  0.66710606  0.48368412  0.20830179    -0.81000
O1261       O  0.64776174  0.34823934  0.18731378    -0.83700
C1262       C  0.58433436  0.42264991  0.13514679     0.97000
C1263       C  0.64214956  0.49120743  0.11028688     1.04500
O1264       O  0.64995191  0.42280263  0.16626592    -1.12700
O1265       O  0.70434290  0.37937349  0.16112361    -0.75200
O1266       O  0.69278455  0.41382638  0.11705092    -0.78600
O1267       O  0.59069976  0.45046793  0.15326529    -0.79300
C1268       C  0.71180787  0.39805057  0.13564981     0.95900
O1269       O  0.65359558  0.35210248  0.13229648    -0.77300
O1270       O  0.69853507  0.43583893  0.20912793    -0.82500
C1271       C  0.62374281  0.42690396  0.24464278     0.98500
C1272       C  0.69274668  0.46904301  0.21476917     1.04500
O1273       O  0.61063671  0.44027123  0.21956257    -0.78100
C1274       C  0.64848470  0.33347530  0.15848533     1.02800
Fe1275     Fe  0.65553968  0.10349860  0.10633148     1.65800
Fe1276     Fe  0.68042825  0.11642420  0.18432680     1.73200
Fe1277     Fe  0.63790875  0.04507909  0.16656527     1.54400
O1278       O  0.60005920  0.05915942  0.13818975    -0.81900
O1279       O  0.70808535  0.07460386  0.19276935    -0.80200
O1280       O  0.61132660  0.10888867  0.10967256    -0.84400
O1281       O  0.65129109  0.05082504  0.08673967    -0.79200
O1282       O  0.61862495  0.07653727  0.20248083    -0.81000
O1283       O  0.71041528  0.13207135  0.14678757    -0.83700
C1284       C  0.65221213  0.01833433  0.09784491     0.97000
C1285       C  0.59253995  0.08707088  0.12076508     1.04500
O1286       O  0.65850161  0.08728954  0.15206474    -1.12700
O1287       O  0.65287245  0.16035066  0.17544799    -0.75200
O1288       O  0.65818257  0.15860682  0.12009368    -0.78600
O1289       O  0.65363499  0.01151254  0.12894209    -0.79300
C1290       C  0.65291107  0.17621438  0.14718683     0.95900
O1291       O  0.69994261  0.09772505  0.10255800    -0.77300
O1292       O  0.65648995  0.09985611  0.22784461    -0.82500
C1293       C  0.70153118  0.04308458  0.20209604     0.98500
C1294       C  0.63264886  0.08174692  0.22908010     1.04500
O1295       O  0.67575806  0.02901359  0.19684804    -0.78100
C1296       C  0.71853483  0.11268597  0.12162636     1.02800
C1297       C  0.66211568  0.27697707  0.12811817    -0.06000
C1298       C  0.64619118  0.29326385  0.15468633     0.00000
C1299       C  0.62944428  0.27089982  0.17627522    -0.08600
C1300       C  0.63121042  0.23286579  0.17189213    -0.06000
C1301       C  0.64861079  0.21650641  0.14646907    -0.00100
C1302       C  0.66358463  0.23912943  0.12335196    -0.08500
C1303       C  0.68198774  0.22393171  0.09434618     0.61900
H1304       H  0.67438240  0.29430655  0.11141636     0.12500
H1305       H  0.61942375  0.21543092  0.18897906     0.12600
C1306       C  0.60960470  0.28675317  0.20362983     0.62100
F1307       F  0.69580211  0.25098012  0.07638386    -0.23100
F1308       F  0.66374110  0.20548806  0.07234860    -0.20400
F1309       F  0.70401033  0.20071254  0.10633289    -0.20100
F1310       F  0.59159504  0.31411119  0.19058345    -0.20100
F1311       F  0.62691025  0.30061054  0.22920615    -0.20500
F1312       F  0.59127495  0.26079710  0.21724159    -0.23100
C1313       C  0.51919477  0.13157683  0.09272717    -0.06000
C1314       C  0.00052321  0.10073284  0.09728513     0.00000
C1315       C  0.51053425  0.07016430  0.11278650    -0.08600
C1316       C  0.54101781  0.06613777  0.11870697    -0.06000
C1317       C  0.56083289  0.09425433  0.11258164    -0.00100
C1318       C  0.54975976  0.12797843  0.09929769    -0.08500
C1319       C  0.56928445  0.16058819  0.09228898     0.61900
H1320       H  0.51013313  0.15665026  0.08256534     0.12500
H1321       H  0.54954595  0.04075375  0.12869710     0.12600
C1322       C  0.99114946  0.03621389  0.11962016     0.62100
F1323       F  0.55280952  0.19075576  0.08220764    -0.23100
F1324       F  0.58914510  0.15228346  0.06680347    -0.20400
F1325       F  0.58453866  0.17029587  0.12104261    -0.20100
F1326       F  0.97182546  0.02906168  0.09347065    -0.20100
F1327       F  0.97529961  0.04558621  0.14804309    -0.20500
F1328       F  0.00695750  0.00442696  0.12631867    -0.23100
C1329       C  0.79220393  0.06658582  0.10228046    -0.06000
C1330       C  0.81107323  0.09629676  0.10067930     0.00000
C1331       C  0.79916223  0.13222243  0.10519196    -0.08600
C1332       C  0.76883632  0.13638263  0.11302083    -0.06000
C1333       C  0.75016272  0.10648484  0.11430729    -0.00100
C1334       C  0.76179032  0.07095460  0.10826469    -0.08500
C1335       C  0.74239321  0.03755568  0.10679193     0.61900
H1336       H  0.80144072  0.03958932  0.09825039     0.12500
H1337       H  0.75923396  0.16316435  0.11740818     0.12600
C1338       C  0.81755210  0.16625684  0.10065369     0.62100
F1339       F  0.75908636  0.00559101  0.10712762    -0.23100
F1340       F  0.72603598  0.03835726  0.07748942    -0.20400
F1341       F  0.72335386  0.03677039  0.13381681    -0.20100
F1342       F  0.83295559  0.16430997  0.07067213    -0.20100
F1343       F  0.83734743  0.16984250  0.12699778    -0.20500
F1344       F  0.79987295  0.19743589  0.09979240    -0.23100
C1345       C  0.75266879  0.43996827  0.12766326    -0.06000
C1346       C  0.74331808  0.40383662  0.12812355     0.00000
C1347       C  0.76344372  0.37538123  0.12007510    -0.08600
C1348       C  0.79267213  0.38436220  0.11122242    -0.06000
C1349       C  0.80227229  0.42068084  0.11069427    -0.00100
C1350       C  0.78199642  0.44903546  0.11959938    -0.08500
C1351       C  0.79125366  0.48842408  0.12204400     0.61900
H1352       H  0.73663765  0.46118435  0.13406608     0.12500
H1353       H  0.80835531  0.36287496  0.10461149     0.12600
C1354       C  0.75386731  0.33601573  0.12011729     0.62100
F1355       F  0.76905757  0.51039186  0.13573424    -0.23100
F1356       F  0.79765355  0.50152573  0.09047222    -0.20400
F1357       F  0.81604434  0.49097843  0.14240008    -0.20100
F1358       F  0.72968621  0.33182433  0.09901414    -0.20100
F1359       F  0.74603060  0.32596601  0.15224223    -0.20500
F1360       F  0.77641252  0.31272646  0.10930114    -0.23100
C1361       C  0.51417187  0.39735123  0.08769457    -0.06000
C1362       C  0.99318298  0.39459390  0.11345455     0.00000
C1363       C  0.00325440  0.40092799  0.14673939    -0.08600
C1364       C  0.53206448  0.41563295  0.15249182    -0.06000
C1365       C  0.55308753  0.41484572  0.12663363    -0.00100
C1366       C  0.54439810  0.40371587  0.09391223    -0.08500
C1367       C  0.56670624  0.39739167  0.06565725     0.61900
H1368       H  0.50700116  0.39081597  0.06247844     0.12500
H1369       H  0.53943437  0.42251766  0.17758527     0.12600
C1370       C  0.98559077  0.39235230  0.17804845     0.62100
F1371       F  0.55278755  0.39465501  0.03476261    -0.23100
F1372       F  0.58227411  0.36527474  0.07133459    -0.20400
F1373       F  0.58660079  0.42556467  0.06385112    -0.20100
F1374       F  0.95969140  0.37390326  0.17140488    -0.20100
F1375       F  0.97886657  0.42415541  0.19505636    -0.20500
F1376       F  0.00278447  0.37037950  0.19877357    -0.23100
C1377       C  0.89148715  0.23368831  0.09874588    -0.06000
C1378       C  0.90008529  0.21645549  0.06863498     0.00000
C1379       C  0.90579576  0.23849330  0.04010226    -0.08600
C1380       C  0.90349820  0.27657388  0.04334320    -0.06000
C1381       C  0.89595485  0.29395907  0.07372415    -0.00100
C1382       C  0.88907529  0.27192327  0.10187292    -0.08500
C1383       C  0.87896933  0.28815072  0.13513398     0.61900
H1384       H  0.88693889  0.21679776  0.12022778     0.12500
H1385       H  0.91123274  0.29288217  0.52222839     0.12600
C1386       C  0.91655902  0.22187658  0.50718616     0.62100
F1387       F  0.86881413  0.26185624  0.15685088    -0.23100
F1388       F  0.85587200  0.31280162  0.12984868    -0.20400
F1389       F  0.90246898  0.30533533  0.15060352    -0.20100
F1390       F  0.89354517  0.20291687  0.49258166    -0.20100
F1391       F  0.94076722  0.19884804  0.51239158    -0.20500
F1392       F  0.92519805  0.24806850  0.48452867    -0.23100
C1393       C  0.87175702  0.46875619  0.40346984    -0.06000
C1394       C  0.85091695  0.49745183  0.40755063     0.00000
C1395       C  0.83367637  0.49902850  0.43704808    -0.08600
C1396       C  0.84050387  0.47477707  0.46321955    -0.06000
C1397       C  0.86410092  0.44888629  0.46116055    -0.00100
C1398       C  0.87844268  0.44399765  0.42966255    -0.08500
C1399       C  0.90107096  0.41363077  0.42362580     0.61900
H1400       H  0.88395347  0.46698286  0.38010289     0.12500
H1401       H  0.82819731  0.47755521  0.48639681     0.12600
C1402       C  0.80776069  0.52579213  0.44061587     0.62100
F1403       F  0.90719984  0.40928809  0.38982203    -0.23100
F1404       F  0.89003014  0.38115235  0.43525336    -0.20400
F1405       F  0.92745430  0.42116972  0.43993077    -0.20100
F1406       F  0.78889199  0.52229925  0.41340419    -0.20100
F1407       F  0.81801602  0.56094581  0.44208562    -0.20500
F1408       F  0.79141112  0.51964957  0.46936927    -0.23100
C1409       C  0.90416459  0.55028256  0.20652449    -0.06000
C1410       C  0.87643433  0.56892324  0.20706844     0.00000
C1411       C  0.85831387  0.56782620  0.17779269    -0.08600
C1412       C  0.86700553  0.54448735  0.15124348    -0.06000
C1413       C  0.89181303  0.52096260  0.15400916    -0.00100
C1414       C  0.91153000  0.52507403  0.18121334    -0.08500
C1415       C  0.93938808  0.50159937  0.18431735     0.61900
H1416       H  0.91860373  0.55230064  0.22817272     0.12500
H1417       H  0.85297572  0.54202416  0.12927433     0.12600
C1418       C  0.82906682  0.58891437  0.17510800     0.62100
F1419       F  0.95695588  0.51200827  0.21114462    -0.23100
F1420       F  0.95614483  0.50407933  0.15537653    -0.20400
F1421       F  0.93139231  0.46594681  0.18914192    -0.20100
F1422       F  0.83386926  0.62535064  0.18128437    -0.20100
F1423       F  0.80879569  0.57585010  0.19795926    -0.20500
F1424       F  0.81654353  0.58590356  0.14348036    -0.23100
C1425       C  0.74054109  0.53023035  0.27020307    -0.06000
C1426       C  0.76947023  0.51737338  0.26211251     0.00000
C1427       C  0.77279213  0.48958052  0.23779697    -0.08600
C1428       C  0.74709052  0.47656893  0.22183945    -0.06000
C1429       C  0.71806366  0.48944950  0.22976571    -0.00100
C1430       C  0.71475476  0.51684978  0.25453132    -0.08500
C1431       C  0.68440096  0.53184274  0.26467779     0.61900
H1432       H  0.73832228  0.55158620  0.28883730     0.12500
H1433       H  0.74956338  0.45556619  0.20292806     0.12600
C1434       C  0.80315969  0.47397334  0.22824502     0.62100
F1435       F  0.68633538  0.55709661  0.29039717    -0.23100
F1436       F  0.66664229  0.50395995  0.27558772    -0.20400
F1437       F  0.67108513  0.54880898  0.23751305    -0.20100
F1438       F  0.81644437  0.45818747  0.25602131    -0.20100
F1439       F  0.82104520  0.50122538  0.21629472    -0.20500
F1440       F  0.80120228  0.44750634  0.20359270    -0.23100
C1441       C  0.73965727  0.99432157  0.20220495    -0.06000
C1442       C  0.72625473  0.02359954  0.21896688     0.00000
C1443       C  0.74119000  0.03979221  0.24659791    -0.08600
C1444       C  0.76939486  0.02628804  0.25621287    -0.06000
C1445       C  0.78249447  0.99616614  0.24021826    -0.00100
C1446       C  0.76759185  0.98021889  0.21218194    -0.08500
C1447       C  0.78112520  0.94889640  0.19207948     0.61900
H1448       H  0.72838215  0.98318460  0.18055540     0.12500
H1449       H  0.78059206  0.03779802  0.27773404     0.12600
C1450       C  0.72643430  0.06978126  0.26730602     0.62100
F1451       F  0.76734250  0.94498645  0.16122035    -0.23100
F1452       F  0.77804694  0.91662119  0.20925760    -0.20400
F1453       F  0.81091800  0.95512181  0.18629388    -0.20100
F1454       F  0.69821719  0.05909820  0.27630167    -0.20100
F1455       F  0.72447139  0.10166838  0.24921588    -0.20500
F1456       F  0.74212651  0.07692800  0.29644450    -0.23100
C1457       C  0.86203561  0.77690438  0.29560460    -0.06000
C1458       C  0.85026515  0.79730486  0.32255582     0.00000
C1459       C  0.83743043  0.77816891  0.34988675    -0.08600
C1460       C  0.83602058  0.73989163  0.34832948    -0.06000
C1461       C  0.84684001  0.71963056  0.32083458    -0.00100
C1462       C  0.86085725  0.73857150  0.29424672    -0.08500
C1463       C  0.87511227  0.71884946  0.26464586     0.61900
H1464       H  0.87201817  0.79143758  0.27505832     0.12500
H1465       H  0.82561083  0.72536586  0.36859612     0.12600
C1466       C  0.82424992  0.79754837  0.38031988     0.62100
F1467       F  0.89122124  0.74208104  0.24467512    -0.23100
F1468       F  0.85338545  0.70349821  0.24477762    -0.20400
F1469       F  0.89449835  0.69204968  0.27610642    -0.20100
F1470       F  0.80227921  0.82181915  0.37018932    -0.20100
F1471       F  0.84633863  0.81579059  0.39734304    -0.20500
F1472       F  0.81148551  0.77369812  0.40266274    -0.23100
C1473       C  0.87829200  0.93738817  0.17306698    -0.06000
C1474       C  0.89544511  0.94177978  0.20223274     0.00000
C1475       C  0.91958494  0.96627601  0.20113195    -0.08600
C1476       C  0.92115362  0.99137298  0.17480883    -0.06000
C1477       C  0.90179996  0.98997037  0.14734012    -0.00100
C1478       C  0.88126439  0.96094034  0.14528007    -0.08500
C1479       C  0.86099180  0.95643222  0.11510892     0.61900
H1480       H  0.86049914  0.91802438  0.17353878     0.12500
H1481       H  0.93731503  0.01245564  0.17613631     0.12600
C1482       C  0.94288360  0.96871636  0.22856605     0.62100
F1483       F  0.84160697  0.92792492  0.11911214    -0.23100
F1484       F  0.87789884  0.94933945  0.08682769    -0.20400
F1485       F  0.84422207  0.98780244  0.11031203    -0.20100
F1486       F  0.94189944  0.93950183  0.25025294    -0.20100
F1487       F  0.93860132  0.00059059  0.24655165    -0.20500
F1488       F  0.97092444  0.96894045  0.21427915    -0.23100
C1489       C  0.87583397  0.05080598  0.39392254    -0.06000
C1490       C  0.85271166  0.02574657  0.39604497     0.00000
C1491       C  0.83259974  0.02807083  0.42303720    -0.08600
C1492       C  0.83897520  0.05179796  0.44972835    -0.06000
C1493       C  0.86541062  0.07208734  0.45067357    -0.00100
C1494       C  0.88260493  0.07428642  0.42083201    -0.08500
C1495       C  0.90887146  0.09943146  0.41760635     0.61900
H1496       H  0.89003103  0.04986657  0.37201219     0.12500
H1497       H  0.82480098  0.05169196  0.47165425     0.12600
C1498       C  0.80512103  0.00471754  0.42405188     0.62100
F1499       F  0.91888169  0.10122667  0.38482759    -0.23100
F1500       F  0.93225672  0.08716105  0.43734269    -0.20400
F1501       F  0.90046072  0.13421176  0.42737851    -0.20100
F1502       F  0.81333437  0.96888201  0.42956975    -0.20100
F1503       F  0.78999697  0.00726503  0.39386881    -0.20500
F1504       F  0.78583086  0.01563775  0.44931825    -0.23100
C1505       C  0.49454421  0.52282412  0.46420954    -0.06000
C1506       C  0.52289422  0.51540319  0.47795851     0.00000
C1507       C  0.52491914  0.49754163  0.50914447    -0.08600
C1508       C  0.49698698  0.48668259  0.02393782    -0.06000
C1509       C  0.96893757  0.49274833  0.01132267    -0.00100
C1510       C  0.96628969  0.51540551  0.48080261    -0.08500
C1511       C  0.93613374  0.52626942  0.46667043     0.61900
H1512       H  0.49326060  0.53835580  0.44120576     0.12500
H1513       H  0.49822291  0.47179930  0.04730787     0.12600
C1514       C  0.55430701  0.49354184  0.52736535     0.62100
F1515       F  0.93854713  0.54586986  0.43727203    -0.23100
F1516       F  0.92160522  0.54717909  0.99087801    -0.20400
F1517       F  0.91993143  0.49566329  0.45978941    -0.20100
F1518       F  0.56560274  0.52762809  0.03109922    -0.20100
F1519       F  0.57335397  0.47106513  0.50928191    -0.20500
F1520       F  0.54886488  0.47974898  0.05888365    -0.23100
C1521       C  0.99165223  0.59247047  0.34521529    -0.06000
C1522       C  0.99769537  0.60994920  0.37611677     0.00000
C1523       C  0.97324101  0.62092402  0.39666155    -0.08600
C1524       C  0.94431155  0.61250274  0.38602330    -0.06000
C1525       C  0.93855044  0.59406576  0.35579074    -0.00100
C1526       C  0.96260544  0.58437582  0.33462345    -0.08500
C1527       C  0.95782295  0.56649184  0.30067788     0.61900
H1528       H  0.51043965  0.57728524  0.33142106     0.12500
H1529       H  0.92559701  0.61989132  0.40183568     0.12600
C1530       C  0.97689333  0.64118384  0.42973359     0.62100
F1531       F  0.98400694  0.56325537  0.28257630    -0.23100
F1532       F  0.93794190  0.58717006  0.28198695    -0.20400
F1533       F  0.94677273  0.53199158  0.30494561    -0.20100
F1534       F  0.49351311  0.67150862  0.42261239    -0.20100
F1535       F  0.49180429  0.61906584  0.45207998    -0.20500
F1536       F  0.94977383  0.65085397  0.44393931    -0.23100
C1537       C  0.69769373  0.62511184  0.37413712    -0.06000
C1538       C  0.68996050  0.58852033  0.37972259     0.00000
C1539       C  0.71208468  0.56088842  0.37566968    -0.08600
C1540       C  0.74093471  0.57106174  0.36633505    -0.06000
C1541       C  0.74826788  0.60741461  0.36050563    -0.00100
C1542       C  0.72644861  0.63502137  0.36424926    -0.08500
C1543       C  0.73368629  0.67466154  0.35841889     0.61900
H1544       H  0.68084518  0.64619803  0.37733718     0.12500
H1545       H  0.75814359  0.55045282  0.36286673     0.12600
C1546       C  0.70547117  0.52087050  0.38017072     0.62100
F1547       F  0.70981325  0.69751959  0.36588586    -0.23100
F1548       F  0.74108093  0.67983481  0.32515684    -0.20400
F1549       F  0.75740672  0.68446597  0.37849116    -0.20100
F1550       F  0.68189183  0.51123467  0.35983041    -0.20100
F1551       F  0.69855417  0.51422423  0.41333340    -0.20500
F1552       F  0.72958580  0.49881094  0.37172267    -0.23100
C1553       C  0.61286184  0.57004223  0.05680964    -0.06000
C1554       C  0.63240839  0.56767528  0.02938876     0.00000
C1555       C  0.65916927  0.54693815  0.03333260    -0.08600
C1556       C  0.66194581  0.52284420  0.06049267    -0.06000
C1557       C  0.64032882  0.52148538  0.08566105    -0.00100
C1558       C  0.61620986  0.54700251  0.08495150    -0.08500
C1559       C  0.59276019  0.54790482  0.11231892     0.61900
H1560       H  0.59302157  0.58691678  0.05437422     0.12500
H1561       H  0.68111176  0.50460443  0.06187172     0.12600
C1562       C  0.68497457  0.54880160  0.00906646     0.62100
F1563       F  0.57052331  0.57346573  0.10594981    -0.23100
F1564       F  0.60580223  0.55662512  0.14265566    -0.20400
F1565       F  0.57964325  0.51432443  0.11473485    -0.20100
F1566       F  0.68261763  0.57874922  0.98831023    -0.20100
F1567       F  0.68470490  0.52223518  0.48691078    -0.20500
F1568       F  0.71133064  0.55157960  0.02686663    -0.23100
C1569       C  0.62224596  0.46197337  0.33486776    -0.06000
C1570       C  0.59903673  0.48786201  0.33198469     0.00000
C1571       C  0.57958020  0.48601870  0.30425241    -0.08600
C1572       C  0.58621554  0.46110096  0.27838793    -0.06000
C1573       C  0.61248132  0.43934179  0.27838569    -0.00100
C1574       C  0.62949038  0.43763510  0.30848476    -0.08500
C1575       C  0.65591566  0.41187109  0.31262999     0.61900
H1576       H  0.63613323  0.46277381  0.35708987     0.12500
H1577       H  0.57196648  0.46083036  0.25647110     0.12600
C1578       C  0.55211610  0.51046271  0.30176599     0.62100
F1579       F  0.66543261  0.41029524  0.34566044    -0.23100
F1580       F  0.67942725  0.42336816  0.29327329    -0.20400
F1581       F  0.64805537  0.37715137  0.30306714    -0.20100
F1582       F  0.56037288  0.54628348  0.29866030    -0.20100
F1583       F  0.53495916  0.50672105  0.33026962    -0.20500
F1584       F  0.53471506  0.50180395  0.27426621    -0.23100
C1585       C  0.74396181  0.88500205  0.37272372    -0.06000
C1586       C  0.75527606  0.90920689  0.34906985     0.00000
C1587       C  0.73733354  0.93882483  0.33817438    -0.08600
C1588       C  0.70850844  0.94312783  0.35083452    -0.06000
C1589       C  0.69663881  0.91800864  0.37291929    -0.00100
C1590       C  0.71439490  0.88830074  0.38428636    -0.10900
C1591       C  0.70240011  0.86062196  0.40867198     0.61900
H1592       H  0.75827970  0.86322948  0.38165986     0.12500
H1593       H  0.69425942  0.96518322  0.34208103     0.12600
C1594       C  0.74797184  0.96482886  0.31197448     0.62100
F1595       F  0.72432251  0.83626069  0.41903368    -0.23100
F1596       F  0.68002578  0.84108417  0.39360742    -0.20400
F1597       F  0.69115422  0.87809293  0.43674612    -0.20100
F1598       F  0.75134909  0.94584711  0.28228840    -0.20100
F1599       F  0.77471981  0.97959746  0.32181640    -0.20500
F1600       F  0.72780523  0.99305181  0.30666507    -0.23100
C1601       C  0.99723452  0.94363864  0.36225568    -0.06000
C1602       C  0.00657397  0.90710479  0.36414375     0.00000
C1603       C  0.98600112  0.87933618  0.35805012    -0.08600
C1604       C  0.95648471  0.88922176  0.34982413    -0.06000
C1605       C  0.94678271  0.92586534  0.34825045    -0.00100
C1606       C  0.96749429  0.95366363  0.35509259    -0.08500
C1607       C  0.95823954  0.99352413  0.35642269     0.61900
H1608       H  0.51494840  0.96292376  0.36594913     0.12500
H1609       H  0.94058639  0.86811296  0.34465081     0.12600
C1610       C  0.99542720  0.83958754  0.35953488     0.62100
F1611       F  0.98085200  0.01510458  0.36850397    -0.23100
F1612       F  0.93403532  0.99814075  0.37747915    -0.20400
F1613       F  0.95083920  0.00549437  0.32462303    -0.20100
F1614       F  0.00551178  0.83113113  0.39137969    -0.20100
F1615       F  0.51810682  0.82990741  0.34207419    -0.20500
F1616       F  0.97212031  0.81679041  0.35202358    -0.23100
C1617       C  0.59514185  0.77471056  0.43611705    -0.06000
C1618       C  0.60229691  0.79076213  0.40527201     0.00000
C1619       C  0.60896082  0.76755081  0.37751994    -0.08600
C1620       C  0.60727596  0.72952145  0.38172156    -0.06000
C1621       C  0.59892535  0.71355761  0.41226884    -0.00100
C1622       C  0.59297550  0.73681879  0.44022568    -0.08500
C1623       C  0.58324473  0.72246160  0.47417219     0.61900
H1624       H  0.59018372  0.79241346  0.45717138     0.12500
H1625       H  0.61192842  0.71177908  0.36059018     0.12600
C1626       C  0.61759553  0.78226803  0.34337672     0.62100
F1627       F  0.58460443  0.75026526  0.99830975    -0.23100
F1628       F  0.60587499  0.70150318  0.48809928    -0.20400
F1629       F  0.56297684  0.70303447  0.97361136    -0.20100
F1630       F  0.64042667  0.80675128  0.34679811    -0.20100
F1631       F  0.59321422  0.79919920  0.32862258    -0.20500
F1632       F  0.62738917  0.75496620  0.32188585    -0.23100
C1633       C  0.62004711  0.04428746  0.31795096    -0.06000
C1634       C  0.61060429  0.00868079  0.31033391     0.00000
C1635       C  0.60588709  0.99924160  0.27623610    -0.08600
C1636       C  0.61323474  0.02437929  0.25127739    -0.06000
C1637       C  0.62409085  0.05925947  0.25865655    -0.00100
C1638       C  0.62642952  0.06999523  0.29263939    -0.08500
C1639       C  0.63398426  0.10872511  0.30208121     0.61900
H1640       H  0.62285926  0.05175699  0.34398557     0.12500
H1641       H  0.61119578  0.01627039  0.22529782     0.12600
C1642       C  0.59270647  0.96312377  0.26568744     0.62100
F1643       F  0.63223098  0.11444148  0.33635713    -0.23100
F1644       F  0.61411870  0.13242770  0.28663514    -0.20400
F1645       F  0.66252523  0.11665361  0.29201065    -0.20100
F1646       F  0.56765438  0.95619043  0.28459992    -0.20100
F1647       F  0.61351304  0.93543680  0.26998096    -0.20500
F1648       F  0.58416867  0.96315983  0.23228866    -0.23100
C1649       C  0.62298876  0.93997896  0.04489608    -0.06000
C1650       C  0.63993381  0.94441782  0.01562800     0.00000
C1651       C  0.66541968  0.96681603  0.01732558    -0.08600
C1652       C  0.66927581  0.98944388  0.04525633    -0.06000
C1653       C  0.65054730  0.98803769  0.07311249    -0.00100
C1654       C  0.62813802  0.96116109  0.07400959    -0.08500
C1655       C  0.60839738  0.95658054  0.10450840     0.61900
H1656       H  0.60387114  0.92245948  0.04377439     0.12500
H1657       H  0.68668971  0.00943140  0.04472072     0.12600
C1658       C  0.68697398  0.97190278  0.48899473     0.62100
F1659       F  0.58730187  0.93008562  0.09952567    -0.23100
F1660       F  0.59354772  0.98884202  0.11165123    -0.20400
F1661       F  0.62566145  0.94646195  0.13176264    -0.20100
F1662       F  0.68281382  0.00480545  0.47286567    -0.20100
F1663       F  0.68545267  0.94402106  0.46583187    -0.20500
F1664       F  0.71526232  0.97082283  0.50280624    -0.23100
C1665       C  0.50458244  0.03071132  0.00879427    -0.06000
C1666       C  0.97572898  0.01748693  0.99929013     0.00000
C1667       C  0.97166557  0.99307026  0.47196890    -0.08600
C1668       C  0.99727908  0.98155292  0.45432114    -0.06000
C1669       C  0.52636109  0.99423276  0.46056077    -0.00100
C1670       C  0.52944530  0.02111497  0.48554381    -0.08500
C1671       C  0.56075849  0.03108004  0.00348218     0.61900
H1672       H  0.50661685  0.04961370  0.02956059     0.12500
H1673       H  0.99544482  0.96084774  0.43506883     0.12600
C1674       C  0.94163251  0.97727301  0.46318925     0.62100
F1675       F  0.55886892  0.05400338  0.03104666    -0.23100
F1676       F  0.57114839  0.05363816  0.46602898    -0.20400
F1677       F  0.57798394  0.00114525  0.01236859    -0.20100
F1678       F  0.92181874  0.00479878  0.45444533    -0.20100
F1679       F  0.93072601  0.95875188  0.49052726    -0.20500
F1680       F  0.94353985  0.95310270  0.43655320    -0.23100
Fe1681     Fe  0.60338623  0.90315878  0.86114157     1.65800
Fe1682     Fe  0.57774939  0.89762619  0.93957750     1.73200
Fe1683     Fe  0.61406935  0.97297629  0.91402897     1.54400
O1684       O  0.65505347  0.95510817  0.89302296    -0.81900
O1685       O  0.55167849  0.94091155  0.95213255    -0.80200
O1686       O  0.64818950  0.89976719  0.86969733    -0.84400
O1687       O  0.61007377  0.95133171  0.83509380    -0.79200
O1688       O  0.63019328  0.95944253  0.95989212    -0.81000
O1689       O  0.54444627  0.88512660  0.90399627    -0.83700
C1690       C  0.60512730  0.98474505  0.84063607     0.97000
C1691       C  0.66495280  0.92507348  0.88015073     1.04500
O1692       O  0.59860947  0.92488782  0.90546424    -1.12700
O1693       O  0.60204784  0.85047243  0.93078307    -0.75200
O1694       O  0.59811783  0.84906642  0.87607164    -0.78600
O1695       O  0.59953112  0.99596937  0.86984590    -0.79300
C1696       C  0.60164347  0.83256364  0.90364947     0.95900
O1697       O  0.55839413  0.90913014  0.85487344    -0.77300
O1698       O  0.60751665  0.91036039  0.97874447    -0.82500
C1699       C  0.55267572  0.97506285  0.94969408     0.98500
C1700       C  0.62563327  0.93645532  0.98262324     1.04500
O1701       O  0.57423733  0.99166786  0.93600586    -0.78100
C1702       C  0.53840073  0.89906460  0.87525238     1.02800
Fe1703     Fe  0.59412470  0.60097861  0.87132213     1.65800
Fe1704     Fe  0.57056570  0.61184644  0.95013726     1.73200
Fe1705     Fe  0.61025840  0.53608477  0.92848114     1.54400
O1706       O  0.59500265  0.50854072  0.88711826    -0.81900
O1707       O  0.59862495  0.59821913  0.99087754    -0.80200
O1708       O  0.59840709  0.55026696  0.84781290    -0.84400
O1709       O  0.63901003  0.60318579  0.87515655    -0.79200
O1710       O  0.57134857  0.51917246  0.95409572    -0.81000
O1711       O  0.59607519  0.65658502  0.94026160    -0.83700
C1712       C  0.65761196  0.57987665  0.88654535     0.97000
C1713       C  0.59647052  0.51732379  0.85666565     1.04500
O1714       O  0.59198684  0.58259128  0.91702545    -1.12700
O1715       O  0.53782385  0.62689321  0.91462975    -0.75200
O1716       O  0.54916844  0.59709935  0.86788819    -0.78600
O1717       O  0.64978798  0.55198117  0.90363834    -0.79300
C1718       C  0.52993739  0.61101662  0.88755211     0.95900
O1719       O  0.59093290  0.65626380  0.88536494    -0.77300
O1720       O  0.54388176  0.56993228  0.96170754    -0.82500
C1721       C  0.61989415  0.57527347  0.99520244     0.98500
C1722       C  0.54737148  0.53585614  0.96341766     1.04500
O1723       O  0.62878038  0.55452145  0.97190474    -0.78100
C1724       C  0.59576171  0.67340549  0.91265314     1.02800
Fe1725     Fe  0.85220978  0.91282000  0.85773105     1.65800
Fe1726     Fe  0.83049089  0.90087603  0.77738764     1.73200
Fe1727     Fe  0.86712165  0.97736704  0.80035868     1.54400
O1728       O  0.85036495  0.00477682  0.84113625    -0.81900
O1729       O  0.86347733  0.90891439  0.74005131    -0.80200
O1730       O  0.85597324  0.96351563  0.88057956    -0.84400
O1731       O  0.89747913  0.90952681  0.85363807    -0.79200
O1732       O  0.82907364  0.99531575  0.77344117    -0.81000
O1733       O  0.85112679  0.85261275  0.79153288    -0.83700
C1734       C  0.91553224  0.93279637  0.84218782     0.97000
C1735       C  0.85231219  0.99621329  0.87154586     1.04500
O1736       O  0.85004580  0.93046411  0.81141438    -1.12700
O1737       O  0.79405524  0.89399934  0.81075679    -0.75200
O1738       O  0.80696300  0.91695409  0.86109175    -0.78600
O1739       O  0.90684502  0.96102994  0.82561245    -0.79300
C1740       C  0.78754416  0.90631564  0.84016576     0.95900
O1741       O  0.84859717  0.85761939  0.84633004    -0.77300
O1742       O  0.80752288  0.94370813  0.75855700    -0.82500
C1743       C  0.88175068  0.93487395  0.73554951     0.98500
C1744       C  0.80873450  0.97783658  0.75803891     1.04500
O1745       O  0.88568566  0.95932741  0.75723276    -0.78100
C1746       C  0.85022045  0.83801085  0.82021617     1.02800
Fe1747     Fe  0.84363843  0.60772168  0.86428974     1.65800
Fe1748     Fe  0.81651826  0.61461298  0.78649387     1.73200
Fe1749     Fe  0.85832159  0.54091399  0.80891506     1.54400
O1750       O  0.89801654  0.55777110  0.83294701    -0.81900
O1751       O  0.79066591  0.57153624  0.77677170    -0.80200
O1752       O  0.88821898  0.61174316  0.85745856    -0.84400
O1753       O  0.85072806  0.55800501  0.88883560    -0.79200
O1754       O  0.87554417  0.55893672  0.76509561    -0.81000
O1755       O  0.78483915  0.62926107  0.82307159    -0.83700
C1756       C  0.84758744  0.52477581  0.88111976     0.97000
C1757       C  0.90640950  0.58694068  0.84787550     1.04500
O1758       O  0.83983263  0.58747161  0.81942310    -1.12700
O1759       O  0.84085334  0.66087689  0.79391149    -0.75200
O1760       O  0.83806281  0.66234796  0.84901077    -0.78600
O1761       O  0.84378482  0.51494894  0.85114360    -0.79300
C1762       C  0.84187744  0.67854404  0.82113663     0.95900
O1763       O  0.79902813  0.60134836  0.87012731    -0.77300
O1764       O  0.84355288  0.60015250  0.74536153    -0.82500
C1765       C  0.79508430  0.53760425  0.77505956     0.98500
C1766       C  0.86493388  0.57740732  0.74112796     1.04500
O1767       O  0.81959313  0.52221408  0.78422280    -0.78100
C1768       C  0.77886974  0.61306079  0.85049978     1.02800
Fe1769     Fe  0.89874194  0.40676212  0.61686935     1.65800
Fe1770     Fe  0.92446894  0.39723231  0.53879340     1.73200
Fe1771     Fe  0.88092746  0.46897596  0.55863548     1.54400
O1772       O  0.84293062  0.45479369  0.58609639    -0.81900
O1773       O  0.95097836  0.44006618  0.53135177    -0.80200
O1774       O  0.85380147  0.40282973  0.61268126    -0.84400
O1775       O  0.89406579  0.45876837  0.63873421    -0.79200
O1776       O  0.86141628  0.44255404  0.51985247    -0.81000
O1777       O  0.95523430  0.37975808  0.57539636    -0.83700
C1778       C  0.89577450  0.49145776  0.62840332     0.97000
C1779       C  0.83518255  0.42656635  0.60237298     1.04500
O1780       O  0.90149771  0.42488523  0.57156389    -1.12700
O1781       O  0.89868720  0.35218539  0.54623133    -0.75200
O1782       O  0.90261652  0.35182985  0.60166846    -0.78600
O1783       O  0.89718703  0.49913399  0.59760042    -0.79300
C1784       C  0.89860154  0.33509055  0.57394109     0.95900
O1785       O  0.94363679  0.41096970  0.62144065    -0.77300
O1786       O  0.89815834  0.41404536  0.99730787    -0.82500
C1787       C  0.94426651  0.47275653  0.52459981     0.98500
C1788       C  0.87438109  0.43311196  0.99430161     1.04500
O1789       O  0.91806650  0.48632189  0.52961240    -0.78100
C1790       C  0.96268407  0.39519234  0.60287935     1.02800
Fe1791     Fe  0.90429010  0.10330514  0.60916144     1.65800
Fe1792     Fe  0.92635190  0.11471757  0.52998472     1.73200
Fe1793     Fe  0.88744911  0.04064268  0.55037151     1.54400
O1794       O  0.90355868  0.01141631  0.59052755    -0.81900
O1795       O  0.90101422  0.10059632  0.98988453    -0.80200
O1796       O  0.90001894  0.05184067  0.63143316    -0.84400
O1797       O  0.85983756  0.10837748  0.60557564    -0.79200
O1798       O  0.92560210  0.02289656  0.52300815    -0.81000
O1799       O  0.89995824  0.15885396  0.54138167    -0.83700
C1800       C  0.84125603  0.08669177  0.59309069     0.97000
C1801       C  0.90211216  0.01903605  0.62133378     1.04500
O1802       O  0.90593993  0.08562367  0.56289015    -1.12700
O1803       O  0.95875004  0.12781980  0.56563667    -0.75200
O1804       O  0.94881096  0.09667660  0.61192440    -0.78600
O1805       O  0.84883847  0.05803209  0.57629504    -0.79300
C1806       C  0.96707133  0.10909537  0.59100499     0.95900
O1807       O  0.90787252  0.15888824  0.59587629    -0.77300
O1808       O  0.95302536  0.07269919  0.51689579    -0.82500
C1809       C  0.87889095  0.07984570  0.98618477     0.98500
C1810       C  0.94935332  0.03890172  0.51354596     1.04500
O1811       O  0.86838062  0.06269885  0.01062775    -0.78100
C1812       C  0.90208400  0.17596683  0.56873015     1.02800
Fe1813     Fe  0.64928188  0.40677780  0.61910813     1.65800
Fe1814     Fe  0.67392277  0.39347442  0.69706543     1.73200
Fe1815     Fe  0.62931352  0.46545682  0.67952058     1.54400
O1816       O  0.64352047  0.49803902  0.64105132    -0.81900
O1817       O  0.64860591  0.40788270  0.74019525    -0.80200
O1818       O  0.64294019  0.45880944  0.59879547    -0.84400
O1819       O  0.60493178  0.40020575  0.62260669    -0.79200
O1820       O  0.66720104  0.48298253  0.70783339    -0.81000
O1821       O  0.64872909  0.34844014  0.68687052    -0.83700
C1822       C  0.58514273  0.42165517  0.63406815     0.97000
C1823       C  0.64283084  0.49124807  0.60996614     1.04500
O1824       O  0.65084763  0.42256453  0.66526527    -1.12700
O1825       O  0.70528393  0.37893876  0.65997273    -0.75200
O1826       O  0.69384773  0.41374011  0.61616319    -0.78600
O1827       O  0.59111375  0.44941261  0.65239544    -0.79300
C1828       C  0.71283906  0.39772535  0.63459844     0.95900
O1829       O  0.65449509  0.35193881  0.63172096    -0.77300
O1830       O  0.69962662  0.43611191  0.70710025    -0.82500
C1831       C  0.62469224  0.42655331  0.74363873     0.98500
C1832       C  0.69328389  0.46902958  0.71335493     1.04500
O1833       O  0.61106163  0.43779437  0.71809826    -0.78100
C1834       C  0.64926820  0.33355316  0.65807766     1.02800
Fe1835     Fe  0.65387974  0.10364397  0.60756199     1.65800
Fe1836     Fe  0.67987869  0.11602229  0.68525729     1.73200
Fe1837     Fe  0.63794256  0.04414752  0.66722554     1.54400
O1838       O  0.59955071  0.05791768  0.63948574    -0.81900
O1839       O  0.70783357  0.07447032  0.69389281    -0.80200
O1840       O  0.60966214  0.10923068  0.61258835    -0.84400
O1841       O  0.64879680  0.05135939  0.58746792    -0.79200
O1842       O  0.61840660  0.07504659  0.70330161    -0.81000
O1843       O  0.70971871  0.13105695  0.64733130    -0.83700
C1844       C  0.65083397  0.01870764  0.59795324     0.97000
C1845       C  0.59135713  0.08661483  0.62355699     1.04500
O1846       O  0.65785261  0.08692256  0.65304808    -1.12700
O1847       O  0.65245514  0.16027235  0.67650739    -0.75200
O1848       O  0.65748907  0.15853386  0.62120373    -0.78600
O1849       O  0.65375581  0.01143196  0.62886974    -0.79300
C1850       C  0.65268887  0.17621450  0.64828997     0.95900
O1851       O  0.69819628  0.09751246  0.60280039    -0.77300
O1852       O  0.65575597  0.09955530  0.72879307    -0.82500
C1853       C  0.70175235  0.04272376  0.70288572     0.98500
C1854       C  0.63199041  0.08122089  0.72999604     1.04500
O1855       O  0.67617778  0.02822594  0.69727382    -0.78100
C1856       C  0.71723657  0.11177676  0.62182226     1.02800
C1857       C  0.66355056  0.27663550  0.62896308    -0.06000
C1858       C  0.64683210  0.29337843  0.65461804     0.00000
C1859       C  0.62914717  0.27150011  0.67565581    -0.08600
C1860       C  0.63102737  0.23338033  0.67201519    -0.06000
C1861       C  0.64903585  0.21656050  0.64741454    -0.00100
C1862       C  0.66478954  0.23874654  0.62456571    -0.08500
C1863       C  0.68371089  0.22307322  0.59619575     0.61900
H1864       H  0.67648656  0.29366099  0.61264169     0.12500
H1865       H  0.61858107  0.21627327  0.68878223     0.12600
C1866       C  0.60778453  0.28802597  0.70116610     0.62100
F1867       F  0.69814797  0.24979182  0.57843305    -0.23100
F1868       F  0.66582766  0.20467994  0.57378875    -0.20400
F1869       F  0.70524053  0.19969788  0.60897488    -0.20100
F1870       F  0.59037702  0.31471220  0.68609347    -0.20100
F1871       F  0.62350939  0.30297117  0.72750038    -0.20500
F1872       F  0.58889889  0.26230926  0.71418446    -0.23100
C1873       C  0.51723914  0.13215115  0.60069287    -0.06000
C1874       C  0.99874430  0.10256938  0.59735699     0.00000
C1875       C  0.51057295  0.06703094  0.60788367    -0.08600
C1876       C  0.54081571  0.06348910  0.61566482    -0.06000
C1877       C  0.55950605  0.09352105  0.61624494    -0.00100
C1878       C  0.54743555  0.12888020  0.60930082    -0.08500
C1879       C  0.56560169  0.16340440  0.61142642     0.61900
H1880       H  0.50752201  0.15846504  0.59474333     0.12500
H1881       H  0.55005915  0.03696703  0.62146484     0.12600
C1882       C  0.99332941  0.03255101  0.60538454     0.62100
F1883       F  0.54777864  0.19440143  0.60977630    -0.23100
F1884       F  0.58544836  0.16455771  0.58498951    -0.20400
F1885       F  0.58087472  0.16458141  0.64156339    -0.20100
F1886       F  0.96639103  0.03544998  0.58891971    -0.20100
F1887       F  0.98850714  0.02047252  0.63767811    -0.20500
F1888       F  0.01019454  0.00657032  0.58844339    -0.23100
C1889       C  0.79040050  0.06517375  0.60046363    -0.06000
C1890       C  0.80948891  0.09471761  0.59950823     0.00000
C1891       C  0.79784051  0.13062653  0.60488643    -0.08600
C1892       C  0.76763644  0.13491367  0.61310748    -0.06000
C1893       C  0.74872688  0.10525275  0.61384988    -0.00100
C1894       C  0.76002234  0.06976637  0.60678054    -0.08500
C1895       C  0.74028129  0.03672691  0.60490962     0.61900
H1896       H  0.79947219  0.03819259  0.59584216     0.12500
H1897       H  0.75831818  0.16167174  0.61828579     0.12600
C1898       C  0.81637687  0.16460123  0.60083650     0.62100
F1899       F  0.75660121  0.00455284  0.60281400    -0.23100
F1900       F  0.72272277  0.03930503  0.57661528    -0.20400
F1901       F  0.72244572  0.03483893  0.63294077    -0.20100
F1902       F  0.83172544  0.16304980  0.57080877    -0.20100
F1903       F  0.83620839  0.16762178  0.62721106    -0.20500
F1904       F  0.79882859  0.19589982  0.60043732    -0.23100
C1905       C  0.75381605  0.43955767  0.62686540    -0.06000
C1906       C  0.74437080  0.40344996  0.62703045     0.00000
C1907       C  0.76435873  0.37503461  0.61839918    -0.08600
C1908       C  0.79368210  0.38398272  0.60984963    -0.06000
C1909       C  0.80337583  0.42025724  0.60983625    -0.00100
C1910       C  0.78314177  0.44860104  0.61879720    -0.08500
C1911       C  0.79247219  0.48798097  0.62118653     0.61900
H1912       H  0.73784908  0.46078329  0.63342582     0.12500
H1913       H  0.80932316  0.36256017  0.60296779     0.12600
C1914       C  0.75448297  0.33580018  0.61736397     0.62100
F1915       F  0.77039534  0.50997997  0.63504843    -0.23100
F1916       F  0.79870951  0.50107983  0.58956696    -0.20400
F1917       F  0.81740832  0.49050677  0.64131729    -0.20100
F1918       F  0.73023810  0.33258792  0.59618616    -0.20100
F1919       F  0.74659421  0.32479901  0.64919534    -0.20500
F1920       F  0.77683158  0.31262787  0.60584279    -0.23100
C1921       C  0.51528857  0.39463980  0.58692399    -0.06000
C1922       C  0.99453542  0.39681058  0.61245331     0.00000
C1923       C  0.00417126  0.40179698  0.64608387    -0.08600
C1924       C  0.53330074  0.41207099  0.65181927    -0.06000
C1925       C  0.55403554  0.41302976  0.62568473    -0.00100
C1926       C  0.54542769  0.40169690  0.59297741    -0.08500
C1927       C  0.56774126  0.39549746  0.56471675     0.61900
H1928       H  0.50793514  0.38896184  0.56159301     0.12500
H1929       H  0.54061869  0.41792535  0.67719380     0.12600
C1930       C  0.98436585  0.39365066  0.67584310     0.62100
F1931       F  0.55380663  0.39201500  0.53390157    -0.23100
F1932       F  0.58374170  0.36375878  0.57072940    -0.20400
F1933       F  0.58725677  0.42401478  0.56253953    -0.20100
F1934       F  0.96769931  0.36308796  0.66946076    -0.20100
F1935       F  0.96552565  0.42277108  0.68220432    -0.20500
F1936       F  0.00106097  0.38690561  0.70444443    -0.23100
C1937       C  0.88947610  0.23441066  0.59829061    -0.06000
C1938       C  0.89888375  0.21668249  0.56872552     0.00000
C1939       C  0.90627099  0.23833313  0.54042189    -0.08600
C1940       C  0.90488648  0.27647648  0.54340419    -0.06000
C1941       C  0.89646654  0.29431933  0.57323440    -0.00100
C1942       C  0.88778676  0.27276293  0.60104692    -0.08500
C1943       C  0.87644382  0.28970065  0.63349138     0.61900
H1944       H  0.88364560  0.21783810  0.61957596     0.12500
H1945       H  0.90852352  0.29330501  0.02192120     0.12600
C1946       C  0.91532041  0.22256834  0.00637623     0.62100
F1947       F  0.86429611  0.26407838  0.65454330    -0.23100
F1948       F  0.85446422  0.31537002  0.62658346    -0.20400
F1949       F  0.89962880  0.30590575  0.65042914    -0.20100
F1950       F  0.89247079  0.20241007  0.99289519    -0.20100
F1951       F  0.94046934  0.20079874  0.01038755    -0.20500
F1952       F  0.92214357  0.24920221  0.98333842    -0.23100
C1953       C  0.87241614  0.46916503  0.90416596    -0.06000
C1954       C  0.85025702  0.49643144  0.90752873     0.00000
C1955       C  0.83189127  0.49651355  0.93615833    -0.08600
C1956       C  0.83873797  0.47229627  0.96237337    -0.06000
C1957       C  0.86352354  0.44805316  0.96123882    -0.00100
C1958       C  0.87923781  0.44452010  0.93039935    -0.08500
C1959       C  0.90347648  0.41582026  0.92509106     0.61900
H1960       H  0.88548228  0.46854052  0.88136888     0.12500
H1961       H  0.82542961  0.47380234  0.98492673     0.12600
C1962       C  0.80481482  0.52162839  0.93870216     0.62100
F1963       F  0.91184330  0.41335968  0.89175352    -0.23100
F1964       F  0.89314194  0.38221425  0.93463935    -0.20400
F1965       F  0.92851048  0.42409911  0.94363642    -0.20100
F1966       F  0.78663950  0.51633089  0.91115140    -0.20100
F1967       F  0.81348016  0.55745642  0.93970468    -0.20500
F1968       F  0.78828135  0.51504595  0.96723805    -0.23100
C1969       C  0.90482218  0.54969979  0.70628043    -0.06000
C1970       C  0.87689582  0.56781214  0.70715168     0.00000
C1971       C  0.85895630  0.56723602  0.67772522    -0.08600
C1972       C  0.86786748  0.54446949  0.65081502    -0.06000
C1973       C  0.89331547  0.52184766  0.65281095    -0.00100
C1974       C  0.91330122  0.52661906  0.67974103    -0.08500
C1975       C  0.94344929  0.50780887  0.68218849     0.61900
H1976       H  0.91942794  0.55129199  0.72786005     0.12500
H1977       H  0.85367084  0.54192467  0.62899659     0.12600
C1978       C  0.82977344  0.58848146  0.67511843     0.62100
F1979       F  0.96508605  0.53356410  0.68733590    -0.23100
F1980       F  0.95092999  0.48851121  0.65353345    -0.20400
F1981       F  0.94345993  0.48442049  0.70923064    -0.20100
F1982       F  0.83468378  0.62480264  0.68173871    -0.20100
F1983       F  0.80932526  0.57529723  0.69769146    -0.20500
F1984       F  0.81740566  0.58596894  0.64337754    -0.23100
C1985       C  0.74082190  0.52942336  0.76953324    -0.06000
C1986       C  0.76976028  0.51694625  0.76104990     0.00000
C1987       C  0.77321254  0.49040851  0.73562720    -0.08600
C1988       C  0.74753950  0.47766763  0.71947584    -0.06000
C1989       C  0.71846017  0.48978627  0.72812242    -0.00100
C1990       C  0.71508047  0.51652006  0.75346056    -0.08500
C1991       C  0.68471124  0.53137061  0.76368688     0.61900
H1992       H  0.73857756  0.55013674  0.78876822     0.12500
H1993       H  0.75006892  0.45736716  0.69994014     0.12600
C1994       C  0.80369137  0.47590183  0.72512340     0.62100
F1995       F  0.68661946  0.55662863  0.78939962    -0.23100
F1996       F  0.66705139  0.50339567  0.77459591    -0.20400
F1997       F  0.67131783  0.54832277  0.73655467    -0.20100
F1998       F  0.81741882  0.45891411  0.75200188    -0.20100
F1999       F  0.82115608  0.50407579  0.71430383    -0.20500
F2000       F  0.80185741  0.45076020  0.69931744    -0.23100
C2001       C  0.74034390  0.99421934  0.70297572    -0.06000
C2002       C  0.72685957  0.02353266  0.71965333     0.00000
C2003       C  0.74195767  0.03989074  0.74717561    -0.08600
C2004       C  0.77034623  0.02669753  0.75654745    -0.06000
C2005       C  0.78344674  0.99654337  0.74067162    -0.00100
C2006       C  0.76840221  0.98034074  0.71287408    -0.08500
C2007       C  0.78146090  0.94823867  0.69349181     0.61900
H2008       H  0.72899520  0.98271605  0.68154147     0.12500
H2009       H  0.78161315  0.03827233  0.77799060     0.12600
C2010       C  0.72716776  0.06951805  0.76826040     0.62100
F2011       F  0.76905601  0.94553847  0.66178886    -0.23100
F2012       F  0.77588261  0.91635773  0.71044245    -0.20400
F2013       F  0.81180001  0.95208930  0.68956891    -0.20100
F2014       F  0.69942963  0.05795570  0.77810482    -0.20100
F2015       F  0.72416969  0.10134069  0.75024184    -0.20500
F2016       F  0.74339504  0.07720947  0.79691774    -0.23100
C2017       C  0.86020009  0.77675841  0.79490774    -0.06000
C2018       C  0.85015705  0.79704837  0.82277783     0.00000
C2019       C  0.83816050  0.77774646  0.85051621    -0.08600
C2020       C  0.83680507  0.73939042  0.84895904    -0.06000
C2021       C  0.84611047  0.71919797  0.82068448    -0.00100
C2022       C  0.85822176  0.73849362  0.79304057    -0.08500
C2023       C  0.86908694  0.71938116  0.76135223     0.61900
H2024       H  0.86921028  0.79141331  0.77387307     0.12500
H2025       H  0.82751513  0.72477493  0.86985896     0.12600
C2026       C  0.82567759  0.79705573  0.88136524     0.62100
F2027       F  0.88269013  0.74300337  0.73946040    -0.23100
F2028       F  0.84527470  0.70433573  0.74456975    -0.20400
F2029       F  0.88968962  0.69249520  0.76951695    -0.20100
F2030       F  0.80371132  0.82168891  0.87190974    -0.20100
F2031       F  0.84820400  0.81490348  0.89800253    -0.20500
F2032       F  0.81306906  0.77318007  0.90379905    -0.23100
C2033       C  0.87923033  0.93665018  0.67338056    -0.06000
C2034       C  0.89626961  0.94199935  0.70247697     0.00000
C2035       C  0.92046663  0.96648329  0.70061054    -0.08600
C2036       C  0.92206505  0.99069495  0.67347246    -0.06000
C2037       C  0.90229318  0.98884283  0.64638189    -0.00100
C2038       C  0.88205764  0.95943764  0.64502064    -0.08500
C2039       C  0.86207599  0.95353393  0.61483261     0.61900
H2040       H  0.86159363  0.91702922  0.67425338     0.12500
H2041       H  0.93870911  0.01165952  0.67374381     0.12600
C2042       C  0.94437455  0.96917611  0.72736415     0.62100
F2043       F  0.84336708  0.92443444  0.61929538    -0.23100
F2044       F  0.87931753  0.94632319  0.58682311    -0.20400
F2045       F  0.84462929  0.98421537  0.60928330    -0.20100
F2046       F  0.94242265  0.94203918  0.75112741    -0.20100
F2047       F  0.94217299  0.00265306  0.74313904    -0.20500
F2048       F  0.97207701  0.96598293  0.71243053    -0.23100
C2049       C  0.87556533  0.05129119  0.89485429    -0.06000
C2050       C  0.85300297  0.02546225  0.89710324     0.00000
C2051       C  0.83354956  0.02650153  0.92479949    -0.08600
C2052       C  0.84035056  0.04947279  0.95192018    -0.06000
C2053       C  0.86630093  0.07070997  0.95239880    -0.00100
C2054       C  0.88246571  0.07439736  0.92201036    -0.08500
C2055       C  0.90784808  0.10076239  0.91840099     0.61900
H2056       H  0.88930620  0.05130643  0.87257306     0.12500
H2057       H  0.82665380  0.04853766  0.97418756     0.12600
C2058       C  0.80580418  0.00350795  0.92558839     0.62100
F2059       F  0.91609135  0.10474102  0.88519084    -0.23100
F2060       F  0.93245408  0.08833582  0.93608799    -0.20400
F2061       F  0.89911003  0.13465582  0.93029002    -0.20100
F2062       F  0.81349853  0.96702958  0.92651221    -0.20100
F2063       F  0.78890506  0.01032843  0.89720294    -0.20500
F2064       F  0.78833984  0.01128082  0.95335639    -0.23100
C2065       C  0.49343064  0.52358342  0.96346308    -0.06000
C2066       C  0.52164555  0.51648950  0.97771173     0.00000
C2067       C  0.52334199  0.49875033  0.00898008    -0.08600
C2068       C  0.49873019  0.48526000  0.52427387    -0.06000
C2069       C  0.96902516  0.49393824  0.51006935    -0.00100
C2070       C  0.96652443  0.51407895  0.98194944    -0.08500
C2071       C  0.93652474  0.52553396  0.96778084     0.61900
H2072       H  0.49238050  0.53886279  0.94030793     0.12500
H2073       H  0.50018620  0.47004818  0.54745039     0.12600
C2074       C  0.55265959  0.49419421  0.02725910     0.62100
F2075       F  0.93921887  0.54502902  0.93835621    -0.23100
F2076       F  0.92094317  0.54760033  0.48979975    -0.20400
F2077       F  0.91988143  0.49531625  0.96095544    -0.20100
F2078       F  0.56685783  0.52722480  0.53094727    -0.20100
F2079       F  0.57148502  0.47153313  0.00906992    -0.20500
F2080       F  0.55072943  0.47931463  0.55911521    -0.23100
C2081       C  0.99147864  0.58883451  0.84663117    -0.06000
C2082       C  0.99761189  0.60752324  0.87687582     0.00000
C2083       C  0.97320924  0.61977581  0.89690340    -0.08600
C2084       C  0.94417342  0.61195667  0.88616895    -0.06000
C2085       C  0.93826749  0.59252205  0.85649875    -0.00100
C2086       C  0.96236581  0.58102870  0.83607195    -0.08500
C2087       C  0.95763170  0.56148327  0.80289693     0.61900
H2088       H  0.50978956  0.58224752  0.83098835     0.12500
H2089       H  0.92549557  0.62052288  0.90154732     0.12600
C2090       C  0.97705863  0.64060831  0.92963990     0.62100
F2091       F  0.98398026  0.55627998  0.78545033    -0.23100
F2092       F  0.93855820  0.58183230  0.78291361    -0.20400
F2093       F  0.94568443  0.52767841  0.80851252    -0.20100
F2094       F  0.49221473  0.66948309  0.92811179    -0.20100
F2095       F  0.49355204  0.61504138  0.95432248    -0.20500
F2096       F  0.95004732  0.65127957  0.94351366    -0.23100
C2097       C  0.69752098  0.62354120  0.87449248    -0.06000
C2098       C  0.68949349  0.58690796  0.87904643     0.00000
C2099       C  0.71120637  0.55910033  0.87355324    -0.08600
C2100       C  0.74011652  0.56919541  0.86420675    -0.06000
C2101       C  0.74775229  0.60568394  0.85950075    -0.00100
C2102       C  0.72622086  0.63339214  0.86441639    -0.08500
C2103       C  0.73372787  0.67309218  0.85958078     0.61900
H2104       H  0.68091612  0.64472332  0.87865405     0.12500
H2105       H  0.75711056  0.54848476  0.85994410     0.12600
C2106       C  0.70400109  0.51907071  0.87651854     0.62100
F2107       F  0.71016142  0.69598796  0.86809608    -0.23100
F2108       F  0.74071578  0.67922345  0.82634866    -0.20400
F2109       F  0.75781165  0.68192002  0.87949834    -0.20100
F2110       F  0.67986191  0.51103372  0.85639382    -0.20100
F2111       F  0.69756337  0.51093437  0.90951587    -0.20500
F2112       F  0.72758876  0.49691576  0.86654047    -0.23100
C2113       C  0.61294752  0.57020936  0.55710990    -0.06000
C2114       C  0.63248334  0.56829646  0.52966917     0.00000
C2115       C  0.65957654  0.54819868  0.53363754    -0.08600
C2116       C  0.66256980  0.52380133  0.56056291    -0.06000
C2117       C  0.64091030  0.52182912  0.58564620    -0.00100
C2118       C  0.61661063  0.54710268  0.58516307    -0.08500
C2119       C  0.59335277  0.54772552  0.61273461     0.61900
H2120       H  0.59294517  0.58680877  0.55479001     0.12500
H2121       H  0.68187949  0.50578770  0.56181648     0.12600
C2122       C  0.68525025  0.55098148  0.50929664     0.62100
F2123       F  0.57080349  0.57290098  0.60648462    -0.23100
F2124       F  0.60652797  0.55678633  0.64291623    -0.20400
F2125       F  0.58061839  0.51394703  0.61539748    -0.20100
F2126       F  0.68391350  0.58341202  0.49186995    -0.20100
F2127       F  0.68617058  0.51752061  0.98977040    -0.20500
F2128       F  0.71200824  0.54979303  0.52658985    -0.23100
C2129       C  0.62140809  0.46155106  0.83424348    -0.06000
C2130       C  0.59861803  0.48800532  0.83090480     0.00000
C2131       C  0.58007758  0.48705267  0.80232763    -0.08600
C2132       C  0.58737538  0.46268214  0.77622068    -0.06000
C2133       C  0.61318730  0.44009270  0.77700739    -0.00100
C2134       C  0.62911582  0.43744229  0.80778172    -0.08500
C2135       C  0.65470397  0.41059408  0.81269699     0.61900
H2136       H  0.63458974  0.46158924  0.85702151     0.12500
H2137       H  0.57383456  0.46322946  0.75375149     0.12600
C2138       C  0.55269894  0.51162375  0.79933478     0.62100
F2139       F  0.66285843  0.40792513  0.84612177    -0.23100
F2140       F  0.67924204  0.42159465  0.79475704    -0.20400
F2141       F  0.64636448  0.37641775  0.80202705    -0.20100
F2142       F  0.56100735  0.54751146  0.79729982    -0.20100
F2143       F  0.53471266  0.50719769  0.82708643    -0.20500
F2144       F  0.53607631  0.50368170  0.77103909    -0.23100
C2145       C  0.74335659  0.88497219  0.87164879    -0.06000
C2146       C  0.75600327  0.91069002  0.85036625     0.00000
C2147       C  0.73962098  0.94273438  0.84252050    -0.08600
C2148       C  0.71060148  0.94734956  0.85480031    -0.06000
C2149       C  0.69718705  0.92060624  0.87399320    -0.00100
C2150       C  0.71386109  0.88914423  0.88339251    -0.10900
C2151       C  0.70090305  0.86068243  0.90635427     0.61900
H2152       H  0.75660997  0.86141737  0.87866857     0.12500
H2153       H  0.69736328  0.97094728  0.84760948     0.12600
C2154       C  0.75154700  0.97039338  0.81855271     0.62100
F2155       F  0.72216322  0.83517968  0.91608346    -0.23100
F2156       F  0.67830949  0.84259322  0.89017948    -0.20400
F2157       F  0.68967656  0.87714484  0.93495727    -0.20100
F2158       F  0.75194842  0.95468824  0.78711231    -0.20100
F2159       F  0.77991058  0.98056965  0.82778549    -0.20500
F2160       F  0.73380067  0.00144739  0.81744040    -0.23100
C2161       C  0.99871849  0.94291624  0.86149693    -0.06000
C2162       C  0.00757940  0.90635976  0.86510271     0.00000
C2163       C  0.98666420  0.87875566  0.86007695    -0.08600
C2164       C  0.95722977  0.88878902  0.85158441    -0.06000
C2165       C  0.94789804  0.92549542  0.84859375    -0.00100
C2166       C  0.96909855  0.95318109  0.85384618    -0.08500
C2167       C  0.96062335  0.99329311  0.85262665     0.61900
H2168       H  0.51439005  0.96373814  0.86774079     0.12500
H2169       H  0.94108551  0.86770997  0.84743309     0.12600
C2170       C  0.99562769  0.83897159  0.86315899     0.62100
F2171       F  0.98375451  0.01506597  0.86301225    -0.23100
F2172       F  0.93666167  0.00033824  0.87352450    -0.20400
F2173       F  0.95324853  0.00293672  0.82015086    -0.20100
F2174       F  0.00446789  0.83163103  0.89569264    -0.20100
F2175       F  0.51876608  0.83168209  0.84089724    -0.20500
F2176       F  0.97238214  0.81623603  0.85525899    -0.23100
C2177       C  0.59834065  0.77513140  0.93626498    -0.06000
C2178       C  0.60328629  0.79155567  0.90498502     0.00000
C2179       C  0.60803409  0.76844190  0.87663503    -0.08600
C2180       C  0.60649424  0.73031151  0.88077406    -0.06000
C2181       C  0.60009177  0.71402762  0.91183271    -0.00100
C2182       C  0.59628663  0.73718013  0.94034329    -0.08500
C2183       C  0.58893560  0.72269195  0.97501477     0.61900
H2184       H  0.59498642  0.79259951  0.95784851     0.12500
H2185       H  0.60964529  0.71274428  0.85919665     0.12600
C2186       C  0.61441373  0.78334308  0.84190546     0.62100
F2187       F  0.57657834  0.75016951  0.49666042    -0.23100
F2188       F  0.61212626  0.70088864  0.98650178    -0.20400
F2189       F  0.55791855  0.70194093  0.47042836    -0.20100
F2190       F  0.63803851  0.80691639  0.84337427    -0.20100
F2191       F  0.58943210  0.80134185  0.82967281    -0.20500
F2192       F  0.62186571  0.75606678  0.81926931    -0.23100
C2193       C  0.61952558  0.04616782  0.81972365    -0.06000
C2194       C  0.60783694  0.01150135  0.81272116     0.00000
C2195       C  0.60037064  0.00281079  0.77915785    -0.08600
C2196       C  0.60836895  0.02692716  0.75366493    -0.06000
C2197       C  0.62218828  0.06044133  0.76018454    -0.00100
C2198       C  0.62622198  0.07121438  0.79397011    -0.08500
C2199       C  0.63585868  0.10935633  0.80286325     0.61900
H2200       H  0.62406210  0.05325220  0.84553659     0.12500
H2201       H  0.60450848  0.01885405  0.72795668     0.12600
C2202       C  0.58333051  0.96878019  0.76989989     0.62100
F2203       F  0.63447726  0.11568605  0.83707307    -0.23100
F2204       F  0.61721817  0.13433214  0.78720167    -0.20400
F2205       F  0.66474264  0.11488589  0.79261983    -0.20100
F2206       F  0.55899813  0.96537695  0.79081752    -0.20100
F2207       F  0.60159174  0.93836235  0.77270299    -0.20500
F2208       F  0.57280039  0.97008608  0.73724384    -0.23100
C2209       C  0.62211719  0.94049788  0.54411709    -0.06000
C2210       C  0.63901672  0.94534571  0.51484699     0.00000
C2211       C  0.66408603  0.96843752  0.51664466    -0.08600
C2212       C  0.66752186  0.99105835  0.54464207    -0.06000
C2213       C  0.64906507  0.98891000  0.57266061    -0.00100
C2214       C  0.62699314  0.96164032  0.57335634    -0.08500
C2215       C  0.60702156  0.95698388  0.60361392     0.61900
H2216       H  0.60320403  0.92262822  0.54292298     0.12500
H2217       H  0.68456864  0.01155110  0.54406145     0.12600
C2218       C  0.68788999  0.97000611  0.98922558     0.62100
F2219       F  0.58700955  0.92919109  0.59902367    -0.23100
F2220       F  0.59100060  0.98871175  0.60940560    -0.20400
F2221       F  0.62409681  0.94877359  0.63153251    -0.20100
F2222       F  0.68304747  0.00237668  0.97241750    -0.20100
F2223       F  0.68629215  0.94144690  0.96677446    -0.20500
F2224       F  0.71639803  0.96979728  0.00244195    -0.23100
C2225       C  0.50398200  0.03237242  0.50327354    -0.06000
C2226       C  0.97484136  0.01934606  0.49763957     0.00000
C2227       C  0.97241620  0.99324645  0.97195324    -0.08600
C2228       C  0.99815332  0.98142992  0.95462532    -0.06000
C2229       C  0.52705362  0.99480357  0.96438909    -0.00100
C2230       C  0.53029966  0.01890003  0.99172659    -0.08500
C2231       C  0.55950568  0.03711535  0.49407979     0.61900
H2232       H  0.50605331  0.05287619  0.52268017     0.12500
H2233       H  0.99624205  0.96205468  0.93423667     0.12600
C2234       C  0.94205181  0.98034451  0.96079342     0.62100
F2235       F  0.55738191  0.06304266  0.51925640    -0.23100
F2236       F  0.57471921  0.04956116  0.97798848    -0.20400
F2237       F  0.57886384  0.00992421  0.50477770    -0.20100
F2238       F  0.92400487  0.00983822  0.95277419    -0.20100
F2239       F  0.92908939  0.96092651  0.98635825    -0.20500
F2240       F  0.94390436  0.95795484  0.93287160    -0.23100
loop_ 
_geom_bond_atom_site_label_1 
_geom_bond_atom_site_label_2 
_geom_bond_distance 
_geom_bond_site_symmetry_2 
_ccdc_geom_bond_type 
Fe1          O17   2.045       .  S
Fe1           O7   2.088       .  S
Fe1          O14   2.096       .  S
Fe1           O6   2.042       .  S
Fe1          O12   1.947       .  S
Fe2           O5   2.020       .  S
Fe2           O9   2.112       .  S
Fe2          O13   2.057       .  S
Fe2          O18   2.105       .  S
Fe2          O12   1.943       .  S
Fe3          O21   2.107       .  S
Fe3           O8   2.028       .  S
Fe3          O15   2.062       .  S
Fe3           O4   2.124       .  S
Fe3          O12   1.937       .  S
O4           C11   1.292       .  A
O5           C19   1.263       .  A
O6           C11   1.275       .  A
O7           C10   1.266       .  A
O8           C20   1.261       .  A
O9           C22   1.283       .  A
C10          O15   1.259       .  A
C10         C514   1.500   1_565  S
C11         C469   1.475       .  S
O13          C16   1.264       .  A
O14          C16   1.267       .  A
C16         C498   1.505       .  S
O17          C22   1.273       .  A
O18          C20   1.276       .  A
C19          O21   1.281       .  A
C19         C549   1.477       .  S
C20        C1090   1.491       .  S
C22        C1602   1.477       .  S
Fe23         O39   2.102       .  S
Fe23         O29   2.030       .  S
Fe23         O36   2.033       .  S
Fe23         O28   2.088       .  S
Fe23         O34   1.950       .  S
Fe24         O27   2.117       .  S
Fe24         O31   2.060       .  S
Fe24         O35   2.111       .  S
Fe24         O40   2.023       .  S
Fe24         O34   1.946       .  S
Fe25         O43   2.035       .  S
Fe25         O30   2.126       .  S
Fe25         O37   2.126       .  S
Fe25         O26   2.054       .  S
Fe25         O34   1.940       .  S
O26          C33   1.260       .  A
O27          C41   1.278       .  A
O28          C33   1.268       .  A
O29          C32   1.273       .  A
O30          C42   1.285       .  A
O31          C44   1.265       .  A
C32          O37   1.288       .  A
C32         C418   1.493       .  S
C33         C450   1.487       .  S
O35          C38   1.279       .  A
O36          C38   1.269       .  A
C38        C1522   1.501   1_455  S
O39          C44   1.274       .  A
O40          C42   1.263       .  A
C41          O43   1.261       .  A
C41         C994   1.500       .  S
C42         C386   1.483       .  S
C44         C501   1.507       .  S
Fe45         O61   2.084       .  S
Fe45         O51   2.042       .  S
Fe45         O58   2.047       .  S
Fe45         O50   2.083       .  S
Fe45         O56   1.963       .  S
Fe46         O49   2.120       .  S
Fe46         O53   2.067       .  S
Fe46         O57   2.128       .  S
Fe46         O62   2.019       .  S
Fe46         O56   1.960       .  S
Fe47         O65   2.011       .  S
Fe47         O52   2.117       .  S
Fe47         O59   2.125       .  S
Fe47         O48   2.041   1_565  S
Fe47         O56   1.958       .  S
O48          C55   1.256   1_545  A
O49          C63   1.280       .  A
O50          C55   1.266       .  A
O51          C54   1.275       .  A
O52          C64   1.281       .  A
O53          C66   1.265       .  A
C54          O59   1.288       .  A
C54         C485   1.494       .  S
C55         C370   1.481   1_565  S
O57          C60   1.287       .  A
O58          C60   1.272       .  A
C60         C466   1.485       .  S
O61          C66   1.266       .  A
O62          C64   1.259       .  A
C63          O65   1.258       .  A
C63         C354   1.493       .  S
C64         C325   1.493       .  S
C66         C338   1.507       .  S
Fe67         O83   2.040       .  S
Fe67         O73   2.095       .  S
Fe67         O80   2.110       .  S
Fe67         O72   2.029       .  S
Fe67         O78   1.943       .  S
Fe68         O71   2.019       .  S
Fe68         O75   2.102       .  S
Fe68         O79   2.059       .  S
Fe68         O84   2.103       .  S
Fe68         O78   1.947       .  S
Fe69         O87   2.124       .  S
Fe69         O74   2.037       .  S
Fe69         O81   2.055       .  S
Fe69         O70   2.127       .  S
Fe69         O78   1.937       .  S
O70          C77   1.288       .  A
O71          C85   1.264       .  A
O72          C77   1.273       .  A
O73          C76   1.270       .  A
O74          C86   1.264       .  A
O75          C88   1.278       .  A
C76          O81   1.261       .  A
C76         C274   1.489       .  S
C77         C405   1.491       .  S
O79          C82   1.265       .  A
O80          C82   1.276       .  A
C82         C341   1.507       .  S
O83          C88   1.267       .  A
O84          C86   1.274       .  A
C85          O87   1.284       .  A
C85         C306   1.490       .  S
C86         C290   1.497       .  S
C88         C421   1.476       .  S
Fe89        O105   2.031       .  S
Fe89         O95   2.113       .  S
Fe89        O102   2.116       .  S
Fe89         O94   2.032       .  S
Fe89        O100   1.931       .  S
Fe90         O93   2.013       .  S
Fe90         O97   2.107       .  S
Fe90        O101   2.059       .  S
Fe90        O666   2.132   1_554  S
Fe90        O100   1.944       .  S
Fe91        O109   2.147       .  S
Fe91         O96   2.029       .  S
Fe91        O103   2.052       .  S
Fe91         O92   2.108       .  S
Fe91        O100   1.923       .  S
O92          C99   1.281       .  A
O93         C107   1.265       .  A
O94          C99   1.268       .  A
O95          C98   1.278       .  A
O96         C668   1.255   1_554  A
O97         C110   1.280       .  A
C98         O103   1.265       .  A
C98         C293   1.486       .  S
C99         C229   1.480       .  S
O101        C104   1.273       .  A
O102        C104   1.278       .  A
C104        C261   1.506       .  S
O105        C110   1.264       .  A
O106       Fe650   2.131       .  S
O106        C108   1.274       .  A
C107        O109   1.288       .  A
C107        C389   1.490       .  S
C108        O656   1.255       .  A
C108        C277   1.509       .  S
C110        C242   1.486       .  S
Fe111       O127   2.120       .  S
Fe111       O117   1.995       .  S
Fe111       O124   2.002       .  S
Fe111       O116   2.111       .  S
Fe111       O122   1.952       .  S
Fe112       O119   2.048       .  S
Fe112       O123   2.103       .  S
Fe112       O128   2.009       .  S
Fe112       O675   2.107   1_554  S
Fe112       O122   1.937       .  S
Fe113       O118   2.119       .  S
Fe113       O125   2.109       .  S
Fe113       O114   2.047       .  S
Fe113       O691   2.027       .  S
Fe113       O122   1.928       .  S
O114        C121   1.258       .  A
O115       Fe672   2.103       .  S
O115        C129   1.273       .  A
O116        C121   1.274       .  A
O117        C120   1.262       .  A
O118        C130   1.284       .  A
O119        C132   1.262       .  A
C120        O125   1.288       .  A
C120        C210   1.471       .  S
C121        C357   1.494   1_545  S
O123        C126   1.281       .  A
O124        C126   1.261       .  A
C126        C194   1.469       .  S
O127        C132   1.277       .  A
O128        C130   1.263       .  A
C129        O131   1.261       .  A
C129        C373   1.498       .  S
C130        C546   1.479   1_554  S
O131       Fe673   2.023       .  S
C132        C258   1.502       .  S
Fe133       O149   2.092       .  S
Fe133       O139   2.014       .  S
Fe133       O146   2.022       .  S
Fe133       O138   2.096       .  S
Fe133       O144   1.933       .  S
Fe134       O137   2.127       .  S
Fe134       O141   2.068       .  S
Fe134       O145   2.108       .  S
Fe134       O150   2.006       .  S
Fe134       O144   1.948       .  S
Fe135       O153   2.029       .  S
Fe135       O140   2.150       .  S
Fe135       O147   2.121       .  S
Fe135       O136   2.059       .  S
Fe135       O144   1.925       .  S
O136        C143   1.263       .  A
O137        C151   1.274       .  A
O138        C143   1.272       .  A
O139        C142   1.264       .  A
O140        C152   1.290       .  A
O141        C154   1.272       .  A
C142        O147   1.286       .  A
C142        C245   1.477       .  S
C143        C437   1.488       .  S
O145        C148   1.278       .  A
O146        C148   1.264       .  A
C148        C226   1.464       .  S
O149        C154   1.276       .  A
O150        C152   1.265       .  A
C151        O153   1.255       .  A
C151        C453   1.510       .  S
C152        C309   1.498       .  S
C154        C178   1.495       .  S
Fe155       O171   1.997       .  S
Fe155       O161   2.104       .  S
Fe155       O168   2.108       .  S
Fe155       O160   1.991       .  S
Fe155       O166   1.927       .  S
Fe156       O159   1.997       .  S
Fe156       O163   2.105       .  S
Fe156       O167   2.057       .  S
Fe156       O172   2.139       .  S
Fe156       O166   1.946       .  S
Fe157       O175   2.161       .  S
Fe157       O162   2.027       .  S
Fe157       O169   2.057       .  S
Fe157       O158   2.109       .  S
Fe157       O166   1.914       .  S
O158        C165   1.284       .  A
O159        C173   1.259       .  A
O160        C165   1.256       .  A
O161        C164   1.277       .  A
O162        C174   1.251       .  A
O163        C176   1.281       .  A
C164        O169   1.267       .  A
C164        C533   1.490   1_545  S
C165        C197   1.482       .  S
O167        C170   1.271       .  A
O168        C170   1.277       .  A
C170        C181   1.497       .  S
O171        C176   1.260       .  A
O172        C174   1.274       .  A
C173        O175   1.293       .  A
C173        C322   1.480       .  S
C174        C517   1.502       .  S
C176        C213   1.461       .  S
C177        C178   1.407       .  A
C177        C182   1.409       .  A
C177        H184   1.082       .  S
C178        C179   1.418       .  A
C179        C180   1.412       .  A
C179        C186   1.518       .  S
C180        C181   1.409       .  A
C180        H185   1.083       .  S
C181        C182   1.424       .  A
C182        C183   1.522       .  S
C183        F187   1.385       .  S
C183        F188   1.383       .  S
C183        F189   1.383       .  S
C186        F190   1.384       .  S
C186        F191   1.382       .  S
C186        F192   1.385       .  S
C193        C198   1.399       .  A
C193       C1314   1.394       .  A
C193        H200   1.083       .  S
C194       C1313   1.394       .  A
C194       C1315   1.422       .  A
C195        C196   1.397       .  A
C195       C1314   1.421       .  A
C195       C1322   1.518   1_455  S
C196        C197   1.401       .  A
C196        H201   1.082       .  S
C197        C198   1.434       .  A
C198        C199   1.527       .  S
C199        F203   1.385       .  S
C199        F204   1.384       .  S
C199        F205   1.384       .  S
C202       C1315   1.519       .  S
C202        F206   1.383       .  S
C202        F207   1.379       .  S
C202        F208   1.385       .  S
C209        C210   1.396       .  A
C209        C214   1.394       .  A
C209        H216   1.083       .  S
C210        C211   1.430       .  A
C211        C212   1.401       .  A
C211        C218   1.524       .  S
C212        C213   1.393       .  A
C212        H217   1.083       .  S
C213        C214   1.421       .  A
C214        C215   1.520       .  S
C215        F219   1.385       .  S
C215        F220   1.379       .  S
C215        F221   1.379       .  S
C218        F222   1.384       .  S
C218        F223   1.383       .  S
C218        F224   1.385       .  S
C225        C226   1.400       .  A
C225        C230   1.401       .  A
C225        H232   1.084       .  S
C226        C227   1.409       .  A
C227        C228   1.406       .  A
C227        C234   1.518       .  S
C228        C229   1.410       .  A
C228        H233   1.083       .  S
C229        C230   1.417       .  A
C230        C231   1.516       .  S
C231        F235   1.385       .  S
C231        F236   1.382       .  S
C231        F237   1.381       .  S
C234        F238   1.383       .  S
C234        F239   1.383       .  S
C234        F240   1.384       .  S
C241        C246   1.404       .  A
C241       C1362   1.404   1_455  A
C241        H248   1.083       .  S
C242        C243   1.424       .  A
C242       C1361   1.403       .  A
C243       C1364   1.407       .  A
C243        C250   1.520       .  S
C244        C245   1.400       .  A
C244       C1363   1.404       .  A
C244        H249   1.085       .  S
C245        C246   1.424       .  A
C246        C247   1.524       .  S
C247        F251   1.385       .  S
C247        F252   1.383       .  S
C247        F253   1.382       .  S
C250        F254   1.383       .  S
C250        F255   1.377       .  S
C250        F256   1.385       .  S
C257        C258   1.407       .  A
C257        C262   1.417       .  A
C257        H264   1.082       .  S
C258        C259   1.425       .  A
C259        C260   1.409       .  A
C259        C826   1.524       .  S
C260        C261   1.407       .  A
C260        H825   1.082       .  S
C261        C262   1.425       .  A
C262        C263   1.519       .  S
C263        F267   1.385       .  S
C263        F268   1.384       .  S
C263        F269   1.383       .  S
H265        C820   1.081       .  S
C266        C819   1.525       .  S
C266        F270   1.383       .  S
C266        F271   1.384       .  S
C266        F272   1.385       .  S
C273        C274   1.409       .  A
C273        C278   1.418       .  A
C273        H280   1.083       .  S
C274        C275   1.410       .  A
C275        C276   1.406       .  A
C275        C282   1.520       .  S
C276        C277   1.417       .  A
C276        H281   1.081       .  S
C277        C278   1.423       .  A
C278        C279   1.518       .  S
C279        F283   1.385       .  S
C279        F284   1.383       .  S
C279        F285   1.382       .  S
C282        F286   1.383       .  S
C282        F287   1.382       .  S
C282        F288   1.384       .  S
C289        C290   1.409       .  A
C289        C294   1.405       .  A
C289        H296   1.084       .  S
C290        C291   1.423       .  A
C291        C292   1.414       .  A
C291        C298   1.519       .  S
C292        C293   1.406       .  A
C292        H297   1.082       .  S
C293        C294   1.412       .  A
C294        C295   1.512       .  S
C295        F299   1.383       .  S
C295        F300   1.382       .  S
C295        F301   1.382       .  S
C298        F302   1.383       .  S
C298        F303   1.382       .  S
C298        F304   1.385       .  S
C305        C306   1.414       .  A
C305        C310   1.411       .  A
C305        H312   1.083       .  S
C306        C307   1.413       .  A
C307        C308   1.407       .  A
C307        C314   1.520       .  S
C308        C309   1.417       .  A
C308        H313   1.082       .  S
C309        C310   1.416       .  A
C310        C311   1.518       .  S
C311        F315   1.385       .  S
C311        F316   1.382       .  S
C311        F317   1.383       .  S
C314        F318   1.383       .  S
C314        F319   1.382       .  S
C314        F320   1.385       .  S
C321        C322   1.395   1_565  A
C321        C326   1.408       .  A
C321        H328   1.083       .  S
C322        C323   1.424       .  A
C323        C324   1.410       .  A
C323        C330   1.520       .  S
C324        C325   1.400   1_545  A
C324        H329   1.082       .  S
C325        C326   1.431       .  A
C326        C327   1.520       .  S
C327        F331   1.384       .  S
C327        F332   1.383       .  S
C327        F333   1.383       .  S
C330        F334   1.383       .  S
C330        F335   1.381       .  S
C330        F336   1.385       .  S
C337        C338   1.408       .  A
C337        C342   1.415       .  A
C337        H344   1.082       .  S
C338        C339   1.426       .  A
C339        C340   1.412       .  A
C339        C346   1.521       .  S
C340        C341   1.407       .  A
C340        H345   1.082       .  S
C341        C342   1.426       .  A
C342        C343   1.521       .  S
C343        F347   1.385       .  S
C343        F348   1.383       .  S
C343        F349   1.384       .  S
C346        F350   1.382       .  S
C346        F351   1.383       .  S
C346        F352   1.384       .  S
C353        C354   1.403       .  A
C353        C358   1.417       .  A
C353        H360   1.086       .  S
C354        C355   1.423       .  A
C355        C356   1.401       .  A
C355        C362   1.516       .  S
C356        C357   1.396       .  A
C356        H361   1.090   1_565  S
C357        C358   1.427       .  A
C358        C359   1.518       .  S
C359        F363   1.385       .  S
C359        F364   1.383       .  S
C359        F365   1.382       .  S
C362        F366   1.384       .  S
C362        F367   1.383       .  S
C362        F368   1.384       .  S
C369        C370   1.407       .  A
C369        C374   1.412       .  A
C369        H376   1.083       .  S
C370        C371   1.410       .  A
C371        C372   1.405       .  A
C371        C378   1.518   1_545  S
C372        C373   1.414       .  A
C372        H377   1.083       .  S
C373        C374   1.419       .  A
C374        C375   1.516       .  S
C375        F379   1.385       .  S
C375        F380   1.382       .  S
C375        F381   1.384       .  S
C378        F382   1.382       .  S
C378        F383   1.384       .  S
C378        F384   1.384   1_565  S
C385        C386   1.410   1_655  A
C385       C1510   1.412       .  A
C385        H392   1.084       .  S
C386        C387   1.411       .  A
C387        C948   1.405   1_455  A
C387        C394   1.512       .  S
C388        C947   1.406   1_655  A
C388       C1509   1.408       .  A
C388        H393   1.084       .  S
C389       C1508   1.409       .  A
C389        C950   1.416   1_554  A
C390       C1505   1.410       .  A
C390        C949   1.415       .  A
C390        C391   1.514       .  S
C391        F395   1.385       .  S
C391        F397   1.376       .  S
C391        F956   1.382       .  S
C394        F399   1.383       .  S
C394        F958   1.378       .  S
C394        F960   1.382       .  S
F396        C951   1.382       .  S
F398        C954   1.378       .  S
F400        C954   1.383       .  S
C401        C402   1.416       .  A
C401        C406   1.409       .  A
C401       H1528   1.081       .  S
C402       C1158   1.502       .  S
C402        C403   1.423       .  A
C403        C404   1.407       .  A
C403        C410   1.522       .  S
C404        C405   1.408       .  A
C404        H409   1.082       .  S
C405        C406   1.414       .  A
C406        C407   1.520       .  S
C407        F411   1.384       .  S
C407        F412   1.383       .  S
C407        F413   1.383       .  S
H408       C1521   1.081   1_455  S
C410        F416   1.385       .  S
C410       F1534   1.383       .  S
C410       F1535   1.383       .  S
F414       C1530   1.383       .  S
F415       C1530   1.382       .  S
C417        C418   1.414       .  A
C417        C422   1.406       .  A
C417        H424   1.083       .  S
C418        C419   1.420       .  A
C419        C420   1.409       .  A
C419        C426   1.519       .  S
C420        C421   1.405       .  A
C420        H425   1.083       .  S
C421        C422   1.408       .  A
C422        C423   1.518       .  S
C423        F427   1.384       .  S
C423        F428   1.383       .  S
C423        F429   1.384       .  S
C426        F430   1.383       .  S
C426        F431   1.383       .  S
C426        F432   1.384       .  S
C433        C434   1.405       .  A
C433        C438   1.414       .  A
C433        H440   1.083       .  S
C434        C601   1.498   1_554  S
C434        C435   1.422       .  A
C435        C436   1.407       .  A
C435        C442   1.515       .  S
C436        C437   1.400       .  A
C436        H441   1.084       .  S
C437        C438   1.422       .  A
C438        C439   1.518       .  S
C439        F443   1.385       .  S
C439        F444   1.382       .  S
C439        F445   1.382       .  S
C442        F446   1.384   1_554  S
C442        F448   1.385       .  S
C442       F1007   1.382   1_554  S
F447       C1002   1.382       .  S
C449        C450   1.406       .  A
C449        C454   1.415       .  A
C449        H456   1.083       .  S
C450        C451   1.410       .  A
C451        C452   1.408       .  A
C451        C458   1.520       .  S
C452        C453   1.418       .  A
C452        H457   1.082       .  S
C453        C454   1.424       .  A
C454        C455   1.517       .  S
C455        F459   1.385       .  S
C455        F460   1.383       .  S
C455        F461   1.383       .  S
C458        F462   1.382       .  S
C458        F463   1.383       .  S
C458        F464   1.385       .  S
C465        C466   1.404       .  A
C465        C470   1.415       .  A
C465        H472   1.081       .  S
C466        C467   1.415       .  A
C467        C468   1.399       .  A
C467        C474   1.502       .  S
C468        C469   1.392       .  A
C468        H473   1.084       .  S
C469        C470   1.421       .  A
C470        C471   1.518       .  S
C471        F475   1.385       .  S
C471        F476   1.381       .  S
C471        F477   1.380       .  S
C474        F478   1.380       .  S
C474        F479   1.383       .  S
C474        F480   1.383       .  S
C481        C482   1.405       .  A
C481        C486   1.410       .  A
C481       H1608   1.084       .  S
C482       C1142   1.478       .  S
C482        C483   1.409       .  A
C483        C484   1.408       .  A
C483        C490   1.518       .  S
C484        C485   1.413       .  A
C484        H489   1.083       .  S
C485        C486   1.420       .  A
C486        C487   1.519       .  S
C487        F491   1.385   1_565  S
C487        F492   1.384       .  S
C487        F493   1.382   1_565  S
H488       C1601   1.084   1_455  S
C490        F494   1.383       .  S
C490        F496   1.384       .  S
C490       F1615   1.383       .  S
F495       C1610   1.383   1_455  S
C497        C498   1.408       .  A
C497        C502   1.409       .  A
C497        H504   1.082       .  S
C498        C499   1.425       .  A
C499        C500   1.414       .  A
C499        C506   1.521       .  S
C500        C501   1.410       .  A
C500        H505   1.082       .  S
C501        C502   1.426       .  A
C502        C503   1.523       .  S
C503        F508   1.383       .  S
C503       F1067   1.385       .  S
C503       F1069   1.384       .  S
C506        F510   1.383       .  S
C506        F511   1.383       .  S
C506        F512   1.385       .  S
F507       C1063   1.385       .  S
F509       C1063   1.384       .  S
C513        C514   1.415       .  A
C513        C518   1.420       .  A
C513        H520   1.081       .  S
C514        C515   1.416       .  A
C515        C516   1.405       .  A
C515        C522   1.522   1_545  S
C516        C517   1.413       .  A
C516        H521   1.081       .  S
C517        C518   1.416       .  A
C518        C519   1.517       .  S
C519        F523   1.384       .  S
C519        F524   1.384       .  S
C519        F525   1.380       .  S
C522        F526   1.384       .  S
C522        F527   1.382       .  S
C522        F528   1.385       .  S
C529        C530   1.406       .  A
C529        C534   1.418       .  A
C529        H536   1.083       .  S
C530        C580   1.495   1_554  S
C530        C531   1.423       .  A
C531        C532   1.401       .  A
C531       C1098   1.516   1_554  S
C532        C533   1.397       .  A
C532        H537   1.081   1_565  S
C533        C534   1.425       .  A
C534        C535   1.518       .  S
C535        F539   1.385       .  S
C535        F540   1.381       .  S
C535        F541   1.383       .  S
C538       C1091   1.516       .  S
C538        F542   1.383   1_565  S
C538        F543   1.380       .  S
C538        F544   1.384       .  S
C545       C1666   1.412   1_454  A
C545       C1110   1.404   1_554  A
C545        H552   1.084       .  S
C546       C1665   1.411   1_556  A
C546       C1107   1.413   1_545  A
C547        C548   1.407       .  A
C547       C1106   1.413   1_565  A
C547        C554   1.518       .  S
C548       C1669   1.410       .  A
C548        H553   1.084       .  S
C549        C550   1.411   1_565  A
C549       C1668   1.411   1_455  A
C550       C1105   1.404       .  A
C550       C1111   1.520       .  S
C551       C1110   1.520   1_554  S
C551        F555   1.385       .  S
C551        F557   1.383       .  S
C551       F1116   1.383   1_554  S
C554        F558   1.384   1_565  S
C554        F559   1.383       .  S
C554        F560   1.385       .  S
F556       C1111   1.383       .  S
Fe561       O577   2.044       .  S
Fe561       O567   2.088       .  S
Fe561       O574   2.097       .  S
Fe561       O566   2.039       .  S
Fe561       O572   1.946       .  S
Fe562       O565   2.025       .  S
Fe562       O569   2.117       .  S
Fe562       O573   2.062       .  S
Fe562       O578   2.114       .  S
Fe562       O572   1.941       .  S
Fe563       O581   2.105       .  S
Fe563       O568   2.025       .  S
Fe563       O575   2.061       .  S
Fe563       O564   2.122       .  S
Fe563       O572   1.935       .  S
O564        C571   1.292       .  A
O565        C579   1.263       .  A
O566        C571   1.275       .  A
O567        C570   1.265       .  A
O568        C580   1.261       .  A
O569        C582   1.286       .  A
C570        O575   1.259       .  A
C570       C1074   1.500   1_565  S
C571       C1029   1.473       .  S
O573        C576   1.264       .  A
O574        C576   1.266       .  A
C576       C1058   1.507       .  S
O577        C582   1.274       .  A
O578        C580   1.278       .  A
C579        O581   1.281       .  A
C579       C1109   1.476       .  S
C582       C2162   1.479       .  S
Fe583       O599   2.106       .  S
Fe583       O589   2.030       .  S
Fe583       O596   2.034       .  S
Fe583       O588   2.091       .  S
Fe583       O594   1.950       .  S
Fe584       O587   2.111       .  S
Fe584       O591   2.058       .  S
Fe584       O595   2.108       .  S
Fe584       O600   2.023       .  S
Fe584       O594   1.946       .  S
Fe585       O603   2.037       .  S
Fe585       O590   2.134       .  S
Fe585       O597   2.128       .  S
Fe585       O586   2.057       .  S
Fe585       O594   1.940       .  S
O586        C593   1.261       .  A
O587        C601   1.276       .  A
O588        C593   1.269       .  A
O589        C592   1.272       .  A
O590        C602   1.287       .  A
O591        C604   1.264       .  A
C592        O597   1.289       .  A
C592        C978   1.494       .  S
C593       C1010   1.488       .  S
O595        C598   1.278       .  A
O596        C598   1.269       .  A
C598       C2082   1.501   1_455  S
O599        C604   1.275       .  A
O600        C602   1.264       .  A
C601        O603   1.261       .  A
C602        C946   1.486       .  S
C604       C1061   1.507       .  S
Fe605       O621   2.087       .  S
Fe605       O611   2.040       .  S
Fe605       O618   2.039       .  S
Fe605       O610   2.086       .  S
Fe605       O616   1.963       .  S
Fe606       O609   2.122       .  S
Fe606       O613   2.071       .  S
Fe606       O617   2.126       .  S
Fe606       O622   2.021       .  S
Fe606       O616   1.958       .  S
Fe607       O625   2.014       .  S
Fe607       O612   2.118       .  S
Fe607       O619   2.128       .  S
Fe607       O608   2.046   1_565  S
Fe607       O616   1.955       .  S
O608        C615   1.257   1_545  A
O609        C623   1.282       .  A
O610        C615   1.266       .  A
O611        C614   1.275       .  A
O612        C624   1.281       .  A
O613        C626   1.266       .  A
C614        O619   1.289       .  A
C614       C1045   1.495       .  S
C615        C930   1.482   1_565  S
O617        C620   1.287       .  A
O618        C620   1.271       .  A
C620       C1026   1.479       .  S
O621        C626   1.266       .  A
O622        C624   1.259       .  A
C623        O625   1.259       .  A
C623        C914   1.495       .  S
C624        C885   1.493       .  S
C626        C898   1.511       .  S
Fe627       O643   2.036       .  S
Fe627       O633   2.098       .  S
Fe627       O640   2.114       .  S
Fe627       O632   2.029       .  S
Fe627       O638   1.942       .  S
Fe628       O631   2.013       .  S
Fe628       O635   2.106       .  S
Fe628       O639   2.057       .  S
Fe628       O644   2.109       .  S
Fe628       O638   1.944       .  S
Fe629       O647   2.126       .  S
Fe629       O634   2.033       .  S
Fe629       O641   2.050       .  S
Fe629       O630   2.123       .  S
Fe629       O638   1.935       .  S
O630        C637   1.286       .  A
O631        C645   1.263       .  A
O632        C637   1.272       .  A
O633        C636   1.271       .  A
O634        C646   1.263       .  A
O635        C648   1.279       .  A
C636        O641   1.260       .  A
C636        C834   1.487       .  S
C637        C965   1.486       .  S
O639        C642   1.265       .  A
O640        C642   1.278       .  A
C642        C901   1.509       .  S
O643        C648   1.267       .  A
O644        C646   1.275       .  A
C645        O647   1.284       .  A
C645        C866   1.487       .  S
C646        C850   1.502       .  S
C648        C981   1.476       .  S
Fe649       O665   2.040       .  S
Fe649       O655   2.102       .  S
Fe649       O662   2.113       .  S
Fe649       O654   2.033       .  S
Fe649       O660   1.929       .  S
Fe650       O653   2.013       .  S
Fe650       O657   2.106       .  S
Fe650       O661   2.058       .  S
Fe650       O660   1.941       .  S
Fe651       O669   2.143       .  S
Fe651       O656   2.029       .  S
Fe651       O663   2.054       .  S
Fe651       O652   2.104       .  S
Fe651       O660   1.922       .  S
O652        C659   1.281       .  A
O653        C667   1.265       .  A
O654        C659   1.270       .  A
O655        C658   1.275       .  A
O657        C670   1.280       .  A
C658        O663   1.265       .  A
C658        C853   1.487       .  S
C659        C789   1.485       .  S
O661        C664   1.273       .  A
O662        C664   1.277       .  A
C664        C821   1.505       .  S
O665        C670   1.267       .  A
O666        C668   1.275       .  A
C667        O669   1.288       .  A
C667        C949   1.487       .  S
C668        C837   1.507       .  S
C670        C802   1.483       .  S
Fe671       O687   2.116       .  S
Fe671       O677   2.012       .  S
Fe671       O684   2.012       .  S
Fe671       O676   2.107       .  S
Fe671       O682   1.953       .  S
Fe672       O679   2.043       .  S
Fe672       O683   2.111       .  S
Fe672       O688   2.006       .  S
Fe672       O682   1.937       .  S
Fe673       O678   2.120       .  S
Fe673       O685   2.113       .  S
Fe673       O674   2.056       .  S
Fe673       O682   1.927       .  S
O674        C681   1.259       .  A
O675        C689   1.274       .  A
O676        C681   1.272       .  A
O677        C680   1.266       .  A
O678        C690   1.284       .  A
O679        C692   1.258       .  A
C680        O685   1.290       .  A
C680        C770   1.476       .  S
C681        C917   1.496   1_545  S
O683        C686   1.283       .  A
O684        C686   1.264       .  A
C686        C754   1.465       .  S
O687        C692   1.275       .  A
O688        C690   1.263       .  A
C689        O691   1.260   1_556  A
C689        C933   1.501       .  S
C690       C1106   1.480       .  S
C692        C818   1.502       .  S
Fe693       O709   2.092       .  S
Fe693       O699   2.012       .  S
Fe693       O706   2.021       .  S
Fe693       O698   2.102       .  S
Fe693       O704   1.934       .  S
Fe694       O697   2.124       .  S
Fe694       O701   2.061       .  S
Fe694       O705   2.108       .  S
Fe694       O710   2.005       .  S
Fe694       O704   1.948       .  S
Fe695       O713   2.030       .  S
Fe695       O700   2.144       .  S
Fe695       O707   2.123       .  S
Fe695       O696   2.061       .  S
Fe695       O704   1.925       .  S
O696        C703   1.263       .  A
O697        C711   1.275       .  A
O698        C703   1.272       .  A
O699        C702   1.264       .  A
O700        C712   1.290       .  A
O701        C714   1.269       .  A
C702        O707   1.287       .  A
C702        C805   1.475       .  S
C703        C997   1.493       .  S
O705        C708   1.278       .  A
O706        C708   1.265       .  A
C708        C786   1.468       .  S
O709        C714   1.276       .  A
O710        C712   1.264       .  A
C711        O713   1.258       .  A
C711       C1013   1.509       .  S
C712        C869   1.492       .  S
C714        C738   1.494       .  S
Fe715       O731   2.014       .  S
Fe715       O721   2.100       .  S
Fe715       O728   2.103       .  S
Fe715       O720   2.006       .  S
Fe715       O726   1.923       .  S
Fe716       O719   1.994       .  S
Fe716       O723   2.111       .  S
Fe716       O727   2.055       .  S
Fe716       O732   2.145       .  S
Fe716       O726   1.949       .  S
Fe717       O735   2.167       .  S
Fe717       O722   2.024       .  S
Fe717       O729   2.063       .  S
Fe717       O718   2.101       .  S
Fe717       O726   1.915       .  S
O718        C725   1.282       .  A
O719        C733   1.259       .  A
O720        C725   1.259       .  A
O721        C724   1.277       .  A
O722        C734   1.248       .  A
O723        C736   1.281       .  A
C724        O729   1.269       .  A
C724       C1093   1.489   1_545  S
C725        C757   1.481       .  S
O727        C730   1.271       .  A
O728        C730   1.277       .  A
C730        C741   1.494       .  S
O731        C736   1.262       .  A
O732        C734   1.274       .  A
C733        O735   1.294       .  A
C733        C882   1.480       .  S
C734       C1077   1.498       .  S
C736        C773   1.471       .  S
C737        C738   1.406       .  A
C737        C742   1.406       .  A
C737        H744   1.082       .  S
C738        C739   1.420       .  A
C739        C740   1.412       .  A
C739        C746   1.519       .  S
C740        C741   1.408       .  A
C740        H745   1.083       .  S
C741        C742   1.422       .  A
C742        C743   1.522       .  S
C743        F747   1.385       .  S
C743        F748   1.383       .  S
C743        F749   1.382       .  S
C746        F750   1.384       .  S
C746        F751   1.383       .  S
C746        F752   1.385       .  S
C753       C1874   1.394   1_455  A
C753        C758   1.402       .  A
C753        H760   1.085       .  S
C754       C1873   1.394       .  A
C754       C1875   1.419       .  A
C755       C1874   1.420   1_455  A
C755        C756   1.394       .  A
C755       C1882   1.522   1_455  S
C756        C757   1.400       .  A
C756        H761   1.085       .  S
C757        C758   1.431       .  A
C758        C759   1.525       .  S
C759        F763   1.385       .  S
C759        F764   1.384       .  S
C759        F765   1.383       .  S
C762       C1875   1.519       .  S
C762        F766   1.379       .  S
C762        F767   1.378       .  S
C762        F768   1.385       .  S
C769        C770   1.396       .  A
C769        C774   1.396       .  A
C769        H776   1.082       .  S
C770        C771   1.428       .  A
C771        C772   1.405       .  A
C771        C778   1.523       .  S
C772        C773   1.397       .  A
C772        H777   1.083       .  S
C773        C774   1.421       .  A
C774        C775   1.517       .  S
C775        F779   1.385       .  S
C775        F780   1.377       .  S
C775        F781   1.378       .  S
C778        F782   1.384       .  S
C778        F783   1.382       .  S
C778        F784   1.385       .  S
C785        C786   1.401       .  A
C785        C790   1.402       .  A
C785        H792   1.084       .  S
C786        C787   1.409       .  A
C787        C788   1.406       .  A
C787        C794   1.519       .  S
C788        C789   1.413       .  A
C788        H793   1.082       .  S
C789        C790   1.419       .  A
C790        C791   1.518       .  S
C791        F795   1.385       .  S
C791        F796   1.383       .  S
C791        F797   1.381       .  S
C794        F798   1.383       .  S
C794        F799   1.382       .  S
C794        F800   1.385       .  S
C801       C1922   1.402   1_455  A
C801        C806   1.403       .  A
C801        H808   1.083       .  S
C802       C1921   1.403       .  A
C802        C803   1.421       .  A
C803       C1924   1.405       .  A
C803        C810   1.518       .  S
C804       C1923   1.406       .  A
C804        C805   1.400       .  A
C804        H809   1.084       .  S
C805        C806   1.423       .  A
C806        C807   1.525       .  S
C807        F811   1.385       .  S
C807        F812   1.383       .  S
C807        F813   1.382       .  S
C810        F814   1.382       .  S
C810        F815   1.380       .  S
C810        F816   1.384       .  S
C817        C818   1.407       .  A
C817        C822   1.414       .  A
C817        H824   1.082       .  S
C818        C819   1.427       .  A
C819        C820   1.409       .  A
C820        C821   1.407       .  A
C821        C822   1.425       .  A
C822        C823   1.519       .  S
C823        F827   1.385       .  S
C823        F828   1.384       .  S
C823        F829   1.383       .  S
C826        F830   1.383   1_554  S
C826        F831   1.384       .  S
C826        F832   1.385   1_554  S
C833        C834   1.409       .  A
C833        C838   1.417       .  A
C833        H840   1.083       .  S
C834        C835   1.409       .  A
C835        C836   1.405       .  A
C835        C842   1.519       .  S
C836        C837   1.417       .  A
C836        H841   1.082       .  S
C837        C838   1.422       .  A
C838        C839   1.518       .  S
C839        F843   1.385       .  S
C839        F844   1.384       .  S
C839        F845   1.382       .  S
C842        F846   1.383       .  S
C842        F847   1.382       .  S
C842        F848   1.384       .  S
C849        C850   1.414       .  A
C849        C854   1.407       .  A
C849        H856   1.082       .  S
C850        C851   1.424       .  A
C851        C852   1.415       .  A
C851        C858   1.519       .  S
C852        C853   1.405       .  A
C852        H857   1.082       .  S
C853        C854   1.408       .  A
C854        C855   1.514       .  S
C855        F859   1.384       .  S
C855        F860   1.384       .  S
C855        F861   1.380       .  S
C858        F862   1.383       .  S
C858        F863   1.383       .  S
C858        F864   1.385       .  S
C865        C866   1.414       .  A
C865        C870   1.409       .  A
C865        H872   1.083       .  S
C866        C867   1.413       .  A
C867        C868   1.408       .  A
C867        C874   1.520       .  S
C868        C869   1.416       .  A
C868        H873   1.083       .  S
C869        C870   1.414       .  A
C870        C871   1.518       .  S
C871        F875   1.385       .  S
C871        F876   1.382       .  S
C871        F877   1.383       .  S
C874        F878   1.383       .  S
C874        F879   1.382       .  S
C874        F880   1.385       .  S
C881        C882   1.396   1_565  A
C881        C886   1.410       .  A
C881        H888   1.083       .  S
C882        C883   1.424       .  A
C883        C884   1.409       .  A
C883        C890   1.520       .  S
C884        C885   1.399   1_545  A
C884        H889   1.082       .  S
C885        C886   1.431       .  A
C886        C887   1.521       .  S
C887        F891   1.385       .  S
C887        F892   1.383       .  S
C887        F893   1.382       .  S
C890        F894   1.382       .  S
C890        F895   1.382       .  S
C890        F896   1.385       .  S
C897        C898   1.408       .  A
C897        C902   1.415       .  A
C897        H904   1.082       .  S
C898        C899   1.428       .  A
C899        C900   1.414       .  A
C899        C906   1.522       .  S
C900        C901   1.407       .  A
C900        H905   1.082       .  S
C901        C902   1.427       .  A
C902        C903   1.521       .  S
C903        F907   1.385       .  S
C903        F908   1.383       .  S
C903        F909   1.384       .  S
C906        F910   1.382       .  S
C906        F911   1.383       .  S
C906        F912   1.385       .  S
C913        C914   1.404       .  A
C913        C918   1.418       .  A
C913        H920   1.083       .  S
C914        C915   1.424       .  A
C915        C916   1.405       .  A
C915        C922   1.517       .  S
C916        C917   1.400       .  A
C916        H921   1.082   1_565  S
C917        C918   1.426       .  A
C918        C919   1.517       .  S
C919        F923   1.385       .  S
C919        F924   1.383       .  S
C919        F925   1.382       .  S
C922        F926   1.384       .  S
C922        F927   1.383   1_565  S
C922        F928   1.384       .  S
C929        C930   1.406       .  A
C929        C934   1.412       .  A
C929        H936   1.083       .  S
C930        C931   1.410       .  A
C931        C932   1.407       .  A
C931        C938   1.518       .  S
C932        C933   1.415       .  A
C932        H937   1.083       .  S
C933        C934   1.421       .  A
C934        C935   1.516       .  S
C935        F939   1.385       .  S
C935        F940   1.383       .  S
C935        F941   1.384       .  S
C938        F942   1.382   1_545  S
C938        F943   1.384       .  S
C938        F944   1.384       .  S
C945        C946   1.410   1_655  A
C945       C2070   1.412       .  A
C945        H952   1.084       .  S
C946        C947   1.412   1_556  A
C947        C954   1.511       .  S
C948       C2069   1.408       .  A
C948        H953   1.084       .  S
C949       C2068   1.408       .  A
C950       C2065   1.413       .  A
C950        C951   1.514       .  S
C951        F955   1.384       .  S
C951        F957   1.377       .  S
C954        F959   1.382       .  S
C961        C962   1.415       .  A
C961        C966   1.406       .  A
C961       H2088   1.081       .  S
C962       C1718   1.500       .  S
C962        C963   1.425       .  A
C963        C964   1.407       .  A
C963        C970   1.523       .  S
C964        C965   1.407       .  A
C964        H969   1.083       .  S
C965        C966   1.413       .  A
C966        C967   1.520       .  S
C967        F971   1.384       .  S
C967        F972   1.383       .  S
C967        F973   1.383       .  S
H968       C2081   1.081   1_455  S
C970       F2094   1.383       .  S
C970       F2095   1.382       .  S
C970        F976   1.385       .  S
F974       C2090   1.383       .  S
F975       C2090   1.382       .  S
C977        C978   1.415       .  A
C977        C982   1.407       .  A
C977        H984   1.083       .  S
C978        C979   1.419       .  A
C979        C980   1.409       .  A
C979        C986   1.519       .  S
C980        C981   1.405       .  A
C980        H985   1.083       .  S
C981        C982   1.408       .  A
C982        C983   1.518       .  S
C983        F987   1.384       .  S
C983        F988   1.383       .  S
C983        F989   1.384       .  S
C986        F990   1.383       .  S
C986        F991   1.383       .  S
C986        F992   1.384       .  S
C993        C994   1.404       .  A
C993        C998   1.416       .  A
C993       H1000   1.083       .  S
C994        C995   1.422       .  A
C995        C996   1.409       .  A
C995       C1002   1.515       .  S
C996        C997   1.401       .  A
C996       H1001   1.084       .  S
C997        C998   1.424       .  A
C998        C999   1.518       .  S
C999       F1003   1.385       .  S
C999       F1004   1.382       .  S
C999       F1005   1.382       .  S
C1002      F1006   1.384       .  S
C1002      F1008   1.384       .  S
C1009      C1010   1.407       .  A
C1009      C1014   1.416       .  A
C1009      H1016   1.083       .  S
C1010      C1011   1.411       .  A
C1011      C1012   1.408       .  A
C1011      C1018   1.519       .  S
C1012      C1013   1.416       .  A
C1012      H1017   1.082       .  S
C1013      C1014   1.423       .  A
C1014      C1015   1.517       .  S
C1015      F1019   1.385       .  S
C1015      F1020   1.382       .  S
C1015      F1021   1.383       .  S
C1018      F1022   1.382       .  S
C1018      F1023   1.383       .  S
C1018      F1024   1.385       .  S
C1025      C1026   1.402       .  A
C1025      C1030   1.412       .  A
C1025      H1032   1.081       .  S
C1026      C1027   1.414       .  A
C1027      C1028   1.399       .  A
C1027      C1034   1.503       .  S
C1028      C1029   1.393       .  A
C1028      H1033   1.084       .  S
C1029      C1030   1.421       .  A
C1030      C1031   1.518       .  S
C1031      F1035   1.385       .  S
C1031      F1036   1.381       .  S
C1031      F1037   1.381       .  S
C1034      F1038   1.379       .  S
C1034      F1039   1.383       .  S
C1034      F1040   1.383       .  S
C1041      C1042   1.405       .  A
C1041      C1046   1.410       .  A
C1041      H2168   1.084       .  S
C1042      C1702   1.479       .  S
C1042      C1043   1.409       .  A
C1043      C1044   1.408       .  A
C1043      C1050   1.518       .  S
C1044      C1045   1.413       .  A
C1044      H1049   1.083       .  S
C1045      C1046   1.420       .  A
C1046      C1047   1.519       .  S
C1047      F1051   1.385   1_565  S
C1047      F1052   1.383       .  S
C1047      F1053   1.382   1_565  S
H1048      C2161   1.084   1_455  S
C1050      F1054   1.383       .  S
C1050      F2175   1.383       .  S
C1050      F1056   1.385       .  S
F1055      C2170   1.384   1_455  S
C1057      C1058   1.407       .  A
C1057      C1062   1.410       .  A
C1057      H1064   1.082       .  S
C1058      C1059   1.425       .  A
C1059      C1060   1.415       .  A
C1059      C1066   1.521       .  S
C1060      C1061   1.410       .  A
C1060      H1065   1.082       .  S
C1061      C1062   1.426       .  A
C1062      C1063   1.523       .  S
C1063      F1068   1.383       .  S
C1066      F1070   1.383       .  S
C1066      F1071   1.383       .  S
C1066      F1072   1.385       .  S
C1073      C1074   1.416       .  A
C1073      C1078   1.420       .  A
C1073      H1080   1.081       .  S
C1074      C1075   1.418       .  A
C1075      C1076   1.404       .  A
C1075      C1082   1.522   1_545  S
C1076      C1077   1.411       .  A
C1076      H1081   1.081       .  S
C1077      C1078   1.414       .  A
C1078      C1079   1.516       .  S
C1079      F1083   1.384       .  S
C1079      F1084   1.384       .  S
C1079      F1085   1.381       .  S
C1082      F1086   1.384       .  S
C1082      F1087   1.382       .  S
C1082      F1088   1.385       .  S
C1089      C1090   1.406       .  A
C1089      C1094   1.416       .  A
C1089      H1096   1.081       .  S
C1090      C1091   1.422       .  A
C1091      C1092   1.401       .  A
C1092      C1093   1.397       .  A
C1092      H1097   1.073   1_565  S
C1093      C1094   1.423       .  A
C1094      C1095   1.516       .  S
C1095      F1099   1.385       .  S
C1095      F1100   1.379       .  S
C1095      F1101   1.382       .  S
C1098      F1102   1.383   1_565  S
C1098      F1103   1.380       .  S
C1098      F1104   1.384       .  S
C1105      C2226   1.412   1_455  A
C1105      H1112   1.084       .  S
C1106      C2225   1.412       .  A
C1107      C1108   1.407       .  A
C1107      C1114   1.517       .  S
C1108      C2229   1.408       .  A
C1108      H1113   1.083       .  S
C1109      C2228   1.409   1_455  A
C1109      C1110   1.411   1_565  A
C1111      F1115   1.385       .  S
C1111      F1117   1.383       .  S
C1114      F1118   1.383   1_565  S
C1114      F1119   1.382       .  S
C1114      F1120   1.384       .  S
Fe1121     O1137   2.044       .  S
Fe1121     O1127   2.089       .  S
Fe1121     O1134   2.093       .  S
Fe1121     O1126   2.039       .  S
Fe1121     O1132   1.945       .  S
Fe1122     O1125   2.021       .  S
Fe1122     O1129   2.116       .  S
Fe1122     O1133   2.062       .  S
Fe1122     O1138   2.113       .  S
Fe1122     O1132   1.940       .  S
Fe1123     O1141   2.095       .  S
Fe1123     O1128   2.031       .  S
Fe1123     O1135   2.059       .  S
Fe1123     O1124   2.114       .  S
Fe1123     O1132   1.934       .  S
O1124      C1131   1.290       .  A
O1125      C1139   1.263       .  A
O1126      C1131   1.276       .  A
O1127      C1130   1.265       .  A
O1128      C1140   1.262       .  A
O1129      C1142   1.285       .  A
C1130      O1135   1.259       .  A
C1130      C1634   1.501   1_565  S
C1131      C1589   1.468       .  S
O1133      C1136   1.264       .  A
O1134      C1136   1.266       .  A
C1136      C1618   1.504       .  S
O1137      C1142   1.274       .  A
O1138      C1140   1.278       .  A
C1139      O1141   1.278       .  A
C1139      C1669   1.472       .  S
C1140      C2210   1.496       .  S
Fe1143     O1159   2.107       .  S
Fe1143     O1149   2.026       .  S
Fe1143     O1156   2.032       .  S
Fe1143     O1148   2.090       .  S
Fe1143     O1154   1.949       .  S
Fe1144     O1147   2.117       .  S
Fe1144     O1151   2.056       .  S
Fe1144     O1155   2.113       .  S
Fe1144     O1160   2.016       .  S
Fe1144     O1154   1.942       .  S
Fe1145     O1163   2.039       .  S
Fe1145     O1150   2.129       .  S
Fe1145     O1157   2.123       .  S
Fe1145     O1146   2.053       .  S
Fe1145     O1154   1.938       .  S
O1146      C1153   1.260       .  A
O1147      C1161   1.278       .  A
O1148      C1153   1.269       .  A
O1149      C1152   1.272       .  A
O1150      C1162   1.286       .  A
O1151      C1164   1.264       .  A
C1152      O1157   1.287       .  A
C1152      C1538   1.492       .  S
C1153      C1570   1.485       .  S
O1155      C1158   1.279       .  A
O1156      C1158   1.267       .  A
O1159      C1164   1.275       .  A
O1160      C1162   1.263       .  A
C1161      O1163   1.261       .  A
C1161      C2114   1.501       .  S
C1162      C1506   1.481       .  S
C1164      C1621   1.505       .  S
Fe1165     O1181   2.085       .  S
Fe1165     O1171   2.041       .  S
Fe1165     O1178   2.040       .  S
Fe1165     O1170   2.083       .  S
Fe1165     O1176   1.960       .  S
Fe1166     O1169   2.118       .  S
Fe1166     O1173   2.069       .  S
Fe1166     O1177   2.123       .  S
Fe1166     O1182   2.018       .  S
Fe1166     O1176   1.955       .  S
Fe1167     O1185   2.012       .  S
Fe1167     O1172   2.112       .  S
Fe1167     O1179   2.125       .  S
Fe1167     O1168   2.043   1_565  S
Fe1167     O1176   1.951       .  S
O1168      C1175   1.256   1_545  A
O1169      C1183   1.281       .  A
O1170      C1175   1.266       .  A
O1171      C1174   1.275       .  A
O1172      C1184   1.280       .  A
O1173      C1186   1.266       .  A
C1174      O1179   1.288       .  A
C1174      C1605   1.492       .  S
C1175      C1490   1.478   1_565  S
O1177      C1180   1.287       .  A
O1178      C1180   1.272       .  A
C1180      C1586   1.477       .  S
O1181      C1186   1.265       .  A
O1182      C1184   1.258       .  A
C1183      O1185   1.259       .  A
C1183      C1474   1.493       .  S
C1184      C1445   1.489       .  S
C1186      C1458   1.508       .  S
Fe1187     O1203   2.033       .  S
Fe1187     O1193   2.096       .  S
Fe1187     O1200   2.106       .  S
Fe1187     O1192   2.026       .  S
Fe1187     O1198   1.942       .  S
Fe1188     O1191   2.022       .  S
Fe1188     O1195   2.102       .  S
Fe1188     O1199   2.060       .  S
Fe1188     O1204   2.102       .  S
Fe1188     O1198   1.949       .  S
Fe1189     O1207   2.123       .  S
Fe1189     O1194   2.026       .  S
Fe1189     O1201   2.052       .  S
Fe1189     O1190   2.125       .  S
Fe1189     O1198   1.936       .  S
O1190      C1197   1.287       .  A
O1191      C1205   1.264       .  A
O1192      C1197   1.272       .  A
O1193      C1196   1.270       .  A
O1194      C1206   1.263       .  A
O1195      C1208   1.278       .  A
C1196      O1201   1.260       .  A
C1196      C1394   1.489       .  S
C1197      C1525   1.487       .  S
O1199      C1202   1.265       .  A
O1200      C1202   1.275       .  A
C1202      C1461   1.506       .  S
O1203      C1208   1.267       .  A
O1204      C1206   1.274       .  A
C1205      O1207   1.284       .  A
C1205      C1426   1.490       .  S
C1206      C1410   1.496       .  S
C1208      C1541   1.473       .  S
Fe1209     O1225   2.040       .  S
Fe1209     O1215   2.099       .  S
Fe1209     O1222   2.114       .  S
Fe1209     O1214   2.032       .  S
Fe1209     O1220   1.930       .  S
Fe1210     O1213   2.018       .  S
Fe1210     O1217   2.105       .  S
Fe1210     O1221   2.059       .  S
Fe1210     O1786   2.124   1_554  S
Fe1210     O1220   1.939       .  S
Fe1211     O1229   2.141       .  S
Fe1211     O1216   2.031       .  S
Fe1211     O1223   2.047       .  S
Fe1211     O1212   2.112       .  S
Fe1211     O1220   1.925       .  S
O1212      C1219   1.283       .  A
O1213      C1227   1.266       .  A
O1214      C1219   1.270       .  A
O1215      C1218   1.274       .  A
O1216      C1788   1.257   1_554  A
O1217      C1230   1.279       .  A
C1218      O1223   1.263       .  A
C1218      C1413   1.481       .  S
C1219      C1349   1.484       .  S
O1221      C1224   1.273       .  A
O1222      C1224   1.277       .  A
C1224      C1381   1.506       .  S
O1225      C1230   1.266       .  A
O1226     Fe1770   2.127       .  S
O1226      C1228   1.274       .  A
C1227      O1229   1.287       .  A
C1227      C1509   1.490       .  S
C1228      O1776   1.255       .  A
C1228      C1397   1.508       .  S
C1230      C1362   1.484       .  S
Fe1231     O1247   2.118       .  S
Fe1231     O1237   2.007       .  S
Fe1231     O1244   2.015       .  S
Fe1231     O1236   2.108       .  S
Fe1231     O1242   1.950       .  S
Fe1232     O1795   2.099   1_554  S
Fe1232     O1239   2.048       .  S
Fe1232     O1243   2.090       .  S
Fe1232     O1248   2.009       .  S
Fe1232     O1242   1.933       .  S
Fe1233     O1811   2.031       .  S
Fe1233     O1238   2.131       .  S
Fe1233     O1245   2.110       .  S
Fe1233     O1234   2.051       .  S
Fe1233     O1242   1.922       .  S
O1234      C1241   1.260       .  A
O1235     Fe1792   2.096       .  S
O1235      C1249   1.270       .  A
O1236      C1241   1.274       .  A
O1237      C1240   1.264       .  A
O1238      C1250   1.286       .  A
O1239      C1252   1.263       .  A
C1240      O1245   1.289       .  A
C1240      C1330   1.475       .  S
C1241      C1477   1.493   1_545  S
O1243      C1246   1.279       .  A
O1244      C1246   1.262       .  A
C1246      C1314   1.471   1_655  S
O1247      C1252   1.278       .  A
O1248      C1250   1.264       .  A
C1249      O1251   1.261       .  A
C1249      C1493   1.498       .  S
C1250      C1666   1.486   1_554  S
O1251     Fe1793   2.034       .  S
C1252      C1378   1.502       .  S
Fe1253     O1269   2.088       .  S
Fe1253     O1259   2.018       .  S
Fe1253     O1266   2.027       .  S
Fe1253     O1258   2.094       .  S
Fe1253     O1264   1.933       .  S
Fe1254     O1257   2.117       .  S
Fe1254     O1261   2.064       .  S
Fe1254     O1265   2.103       .  S
Fe1254     O1270   2.008       .  S
Fe1254     O1264   1.950       .  S
Fe1255     O1273   2.030       .  S
Fe1255     O1260   2.145       .  S
Fe1255     O1267   2.120       .  S
Fe1255     O1256   2.061       .  S
Fe1255     O1264   1.925       .  S
O1256      C1263   1.263       .  A
O1257      C1271   1.273       .  A
O1258      C1263   1.271       .  A
O1259      C1262   1.265       .  A
O1260      C1272   1.290       .  A
O1261      C1274   1.270       .  A
C1262      O1267   1.287       .  A
C1262      C1365   1.476       .  S
C1263      C1557   1.489       .  S
O1265      C1268   1.277       .  A
O1266      C1268   1.266       .  A
C1268      C1346   1.467       .  S
O1269      C1274   1.275       .  A
O1270      C1272   1.265       .  A
C1271      O1273   1.258       .  A
C1271      C1573   1.505       .  S
C1272      C1429   1.496       .  S
C1274      C1298   1.493       .  S
Fe1275     O1291   2.009       .  S
Fe1275     O1281   2.099       .  S
Fe1275     O1288   2.105       .  S
Fe1275     O1280   1.998       .  S
Fe1275     O1286   1.925       .  S
Fe1276     O1279   1.992       .  S
Fe1276     O1283   2.104       .  S
Fe1276     O1287   2.052       .  S
Fe1276     O1292   2.139       .  S
Fe1276     O1286   1.948       .  S
Fe1277     O1295   2.160       .  S
Fe1277     O1282   2.025       .  S
Fe1277     O1289   2.058       .  S
Fe1277     O1278   2.100       .  S
Fe1277     O1286   1.913       .  S
O1278      C1285   1.283       .  A
O1279      C1293   1.259       .  A
O1280      C1285   1.257       .  A
O1281      C1284   1.277       .  A
O1282      C1294   1.249       .  A
O1283      C1296   1.279       .  A
C1284      O1289   1.267       .  A
C1284      C1653   1.489   1_545  S
C1285      C1317   1.481       .  S
O1287      C1290   1.271       .  A
O1288      C1290   1.278       .  A
C1290      C1301   1.493       .  S
O1291      C1296   1.261       .  A
O1292      C1294   1.272       .  A
C1293      O1295   1.293       .  A
C1293      C1442   1.475       .  S
C1294      C1637   1.498       .  S
C1296      C1333   1.465       .  S
C1297      C1298   1.406       .  A
C1297      C1302   1.406       .  A
C1297      H1304   1.082       .  S
C1298      C1299   1.419       .  A
C1299      C1300   1.411       .  A
C1299      C1306   1.519       .  S
C1300      C1301   1.409       .  A
C1300      H1305   1.083       .  S
C1301      C1302   1.422       .  A
C1302      C1303   1.522       .  S
C1303      F1307   1.385       .  S
C1303      F1308   1.383       .  S
C1303      F1309   1.383       .  S
C1306      F1310   1.384       .  S
C1306      F1311   1.382       .  S
C1306      F1312   1.385       .  S
C1313      C1318   1.402       .  A
C1313      H1320   1.082       .  S
C1315      C1316   1.395       .  A
C1316      C1317   1.399       .  A
C1316      H1321   1.081       .  S
C1317      C1318   1.433       .  A
C1318      C1319   1.525       .  S
C1319      F1323   1.385       .  S
C1319      F1324   1.384       .  S
C1319      F1325   1.384       .  S
C1322      F1326   1.383       .  S
C1322      F1327   1.379       .  S
C1322      F1328   1.385   1_655  S
C1329      C1330   1.397       .  A
C1329      C1334   1.394       .  A
C1329      H1336   1.082       .  S
C1330      C1331   1.429       .  A
C1331      C1332   1.404       .  A
C1331      C1338   1.524       .  S
C1332      C1333   1.396       .  A
C1332      H1337   1.083       .  S
C1333      C1334   1.420       .  A
C1334      C1335   1.520       .  S
C1335      F1339   1.385       .  S
C1335      F1340   1.379       .  S
C1335      F1341   1.378       .  S
C1338      F1342   1.384       .  S
C1338      F1343   1.383       .  S
C1338      F1344   1.385       .  S
C1345      C1346   1.402       .  A
C1345      C1350   1.403       .  A
C1345      H1352   1.084       .  S
C1346      C1347   1.409       .  A
C1347      C1348   1.406       .  A
C1347      C1354   1.518       .  S
C1348      C1349   1.412       .  A
C1348      H1353   1.083       .  S
C1349      C1350   1.419       .  A
C1350      C1351   1.518       .  S
C1351      F1355   1.385       .  S
C1351      F1356   1.382       .  S
C1351      F1357   1.381       .  S
C1354      F1358   1.383       .  S
C1354      F1359   1.383       .  S
C1354      F1360   1.385       .  S
C1361      C1366   1.403       .  A
C1361      H1368   1.083       .  S
C1362      C1363   1.421   1_655  A
C1363      C1370   1.518   1_455  S
C1364      C1365   1.400       .  A
C1364      H1369   1.084       .  S
C1365      C1366   1.422       .  A
C1366      C1367   1.524       .  S
C1367      F1371   1.385       .  S
C1367      F1372   1.383       .  S
C1367      F1373   1.382       .  S
C1370      F1374   1.382       .  S
C1370      F1375   1.380       .  S
C1370      F1376   1.384   1_655  S
C1377      C1378   1.407       .  A
C1377      C1382   1.415       .  A
C1377      H1384   1.082       .  S
C1378      C1379   1.426       .  A
C1379      C1380   1.409       .  A
C1379      C1946   1.524       .  S
C1380      C1381   1.407       .  A
C1380      H1945   1.081       .  S
C1381      C1382   1.425       .  A
C1382      C1383   1.520       .  S
C1383      F1387   1.385       .  S
C1383      F1388   1.384       .  S
C1383      F1389   1.383       .  S
H1385      C1940   1.082       .  S
C1386      C1939   1.524       .  S
C1386      F1390   1.383       .  S
C1386      F1391   1.384       .  S
C1386      F1392   1.385       .  S
C1393      C1394   1.409       .  A
C1393      C1398   1.417       .  A
C1393      H1400   1.083       .  S
C1394      C1395   1.410       .  A
C1395      C1396   1.406       .  A
C1395      C1402   1.519       .  S
C1396      C1397   1.416       .  A
C1396      H1401   1.082       .  S
C1397      C1398   1.422       .  A
C1398      C1399   1.517       .  S
C1399      F1403   1.384       .  S
C1399      F1404   1.384       .  S
C1399      F1405   1.383       .  S
C1402      F1406   1.383       .  S
C1402      F1407   1.382       .  S
C1402      F1408   1.384       .  S
C1409      C1410   1.413       .  A
C1409      C1414   1.405       .  A
C1409      H1416   1.082       .  S
C1410      C1411   1.423       .  A
C1411      C1412   1.412       .  A
C1411      C1418   1.519       .  S
C1412      C1413   1.405       .  A
C1412      H1417   1.083       .  S
C1413      C1414   1.409       .  A
C1414      C1415   1.514       .  S
C1415      F1419   1.385       .  S
C1415      F1420   1.383       .  S
C1415      F1421   1.381       .  S
C1418      F1422   1.383       .  S
C1418      F1423   1.383       .  S
C1418      F1424   1.385       .  S
C1425      C1426   1.413       .  A
C1425      C1430   1.410       .  A
C1425      H1432   1.083       .  S
C1426      C1427   1.413       .  A
C1427      C1428   1.408       .  A
C1427      C1434   1.520       .  S
C1428      C1429   1.416       .  A
C1428      H1433   1.082       .  S
C1429      C1430   1.415       .  A
C1430      C1431   1.518       .  S
C1431      F1435   1.385       .  S
C1431      F1436   1.383       .  S
C1431      F1437   1.383       .  S
C1434      F1438   1.383       .  S
C1434      F1439   1.382       .  S
C1434      F1440   1.385       .  S
C1441      C1442   1.395   1_565  A
C1441      C1446   1.408       .  A
C1441      H1448   1.083       .  S
C1442      C1443   1.423       .  A
C1443      C1444   1.407       .  A
C1443      C1450   1.520       .  S
C1444      C1445   1.399   1_545  A
C1444      H1449   1.082       .  S
C1445      C1446   1.431       .  A
C1446      C1447   1.521       .  S
C1447      F1451   1.385       .  S
C1447      F1452   1.383       .  S
C1447      F1453   1.382       .  S
C1450      F1454   1.382       .  S
C1450      F1455   1.382       .  S
C1450      F1456   1.385       .  S
C1457      C1458   1.408       .  A
C1457      C1462   1.414       .  A
C1457      H1464   1.082       .  S
C1458      C1459   1.428       .  A
C1459      C1460   1.413       .  A
C1459      C1466   1.521       .  S
C1460      C1461   1.406       .  A
C1460      H1465   1.082       .  S
C1461      C1462   1.425       .  A
C1462      C1463   1.520       .  S
C1463      F1467   1.385       .  S
C1463      F1468   1.383       .  S
C1463      F1469   1.384       .  S
C1466      F1470   1.381       .  S
C1466      F1471   1.383       .  S
C1466      F1472   1.385       .  S
C1473      C1474   1.404       .  A
C1473      C1478   1.417       .  A
C1473      H1480   1.080       .  S
C1474      C1475   1.423       .  A
C1475      C1476   1.404       .  A
C1475      C1482   1.516       .  S
C1476      C1477   1.399       .  A
C1476      H1481   1.073   1_565  S
C1477      C1478   1.425       .  A
C1478      C1479   1.518       .  S
C1479      F1483   1.385       .  S
C1479      F1484   1.383       .  S
C1479      F1485   1.382       .  S
C1482      F1486   1.384       .  S
C1482      F1487   1.384   1_565  S
C1482      F1488   1.384       .  S
C1489      C1490   1.404       .  A
C1489      C1494   1.411       .  A
C1489      H1496   1.083       .  S
C1490      C1491   1.408       .  A
C1491      C1492   1.406       .  A
C1491      C1498   1.517       .  S
C1492      C1493   1.414       .  A
C1492      H1497   1.083       .  S
C1493      C1494   1.423       .  A
C1494      C1495   1.518       .  S
C1495      F1499   1.385       .  S
C1495      F1500   1.383       .  S
C1495      F1501   1.384       .  S
C1498      F1502   1.382   1_545  S
C1498      F1503   1.384       .  S
C1498      F1504   1.384       .  S
C1505      C1506   1.409       .  A
C1505      H1512   1.084       .  S
C1506      C1507   1.411       .  A
C1507      C2068   1.406       .  A
C1507      C1514   1.511       .  S
C1508      C2067   1.406       .  A
C1508      H1513   1.084       .  S
C1509      C2070   1.416   1_554  A
C1510      C2069   1.416       .  A
C1510      C1511   1.515       .  S
C1511      F1515   1.384       .  S
C1511      F2076   1.383       .  S
C1511      F1517   1.378       .  S
C1514      F2078   1.377       .  S
C1514      F1519   1.382       .  S
C1514      F2080   1.383       .  S
F1516      C2071   1.382       .  S
F1518      C2074   1.378       .  S
F1520      C2074   1.382       .  S
C1521      C1522   1.416       .  A
C1521      C1526   1.407       .  A
C1522      C1523   1.424       .  A
C1523      C1524   1.406       .  A
C1523      C1530   1.522       .  S
C1524      C1525   1.407       .  A
C1524      H1529   1.082       .  S
C1525      C1526   1.413       .  A
C1526      C1527   1.519       .  S
C1527      F1531   1.385       .  S
C1527      F1532   1.383       .  S
C1527      F1533   1.382       .  S
C1530      F1536   1.385       .  S
C1537      C1538   1.415       .  A
C1537      C1542   1.406       .  A
C1537      H1544   1.083       .  S
C1538      C1539   1.419       .  A
C1539      C1540   1.406       .  A
C1539      C1546   1.519       .  S
C1540      C1541   1.404       .  A
C1540      H1545   1.083       .  S
C1541      C1542   1.408       .  A
C1542      C1543   1.519       .  S
C1543      F1547   1.384       .  S
C1543      F1548   1.383       .  S
C1543      F1549   1.384       .  S
C1546      F1550   1.383       .  S
C1546      F1551   1.383       .  S
C1546      F1552   1.385       .  S
C1553      C1554   1.405       .  A
C1553      C1558   1.416       .  A
C1553      H1560   1.083       .  S
C1554      C1721   1.499   1_554  S
C1554      C1555   1.422       .  A
C1555      C1556   1.407       .  A
C1555      C1562   1.514       .  S
C1556      C1557   1.400       .  A
C1556      H1561   1.085       .  S
C1557      C1558   1.423       .  A
C1558      C1559   1.518       .  S
C1559      F1563   1.385       .  S
C1559      F1564   1.382       .  S
C1559      F1565   1.382       .  S
C1562      F1566   1.384   1_554  S
C1562      F2127   1.383   1_554  S
C1562      F1568   1.385       .  S
F1567      C2122   1.382       .  S
C1569      C1570   1.406       .  A
C1569      C1574   1.414       .  A
C1569      H1576   1.083       .  S
C1570      C1571   1.411       .  A
C1571      C1572   1.407       .  A
C1571      C1578   1.518       .  S
C1572      C1573   1.415       .  A
C1572      H1577   1.083       .  S
C1573      C1574   1.423       .  A
C1574      C1575   1.517       .  S
C1575      F1579   1.385       .  S
C1575      F1580   1.383       .  S
C1575      F1581   1.384       .  S
C1578      F1582   1.382       .  S
C1578      F1583   1.383       .  S
C1578      F1584   1.385       .  S
C1585      C1586   1.402       .  A
C1585      C1590   1.410       .  A
C1585      H1592   1.081       .  S
C1586      C1587   1.414       .  A
C1587      C1588   1.397       .  A
C1587      C1594   1.504       .  S
C1588      C1589   1.393       .  A
C1588      H1593   1.084       .  S
C1589      C1590   1.418       .  A
C1590      C1591   1.517       .  S
C1591      F1595   1.385       .  S
C1591      F1596   1.381       .  S
C1591      F1597   1.381       .  S
C1594      F1598   1.380       .  S
C1594      F1599   1.383       .  S
C1594      F1600   1.384       .  S
C1601      C1602   1.404   1_655  A
C1601      C1606   1.409       .  A
C1602      C1603   1.410   1_455  A
C1603      C1604   1.408       .  A
C1603      C1610   1.518       .  S
C1604      C1605   1.412       .  A
C1604      H1609   1.083       .  S
C1605      C1606   1.420       .  A
C1606      C1607   1.519       .  S
C1607      F1611   1.385   1_565  S
C1607      F1612   1.383       .  S
C1607      F1613   1.382   1_565  S
C1610      F1614   1.382   1_655  S
C1610      F1616   1.384       .  S
C1617      C1618   1.407       .  A
C1617      C1622   1.410       .  A
C1617      H1624   1.082       .  S
C1618      C1619   1.425       .  A
C1619      C1620   1.414       .  A
C1619      C1626   1.521       .  S
C1620      C1621   1.409       .  A
C1620      H1625   1.083       .  S
C1621      C1622   1.426       .  A
C1622      C1623   1.523       .  S
C1623      F2187   1.385       .  S
C1623      F1628   1.383       .  S
C1623      F2189   1.384       .  S
C1626      F1630   1.383       .  S
C1626      F1631   1.383       .  S
C1626      F1632   1.385       .  S
F1627      C2183   1.385       .  S
F1629      C2183   1.384       .  S
C1633      C1634   1.416       .  A
C1633      C1638   1.419       .  A
C1633      H1640   1.081       .  S
C1634      C1635   1.418   1_545  A
C1635      C1636   1.405   1_565  A
C1635      C1642   1.522       .  S
C1636      C1637   1.411       .  A
C1636      H1641   1.081       .  S
C1637      C1638   1.414       .  A
C1638      C1639   1.517       .  S
C1639      F1643   1.384       .  S
C1639      F1644   1.383       .  S
C1639      F1645   1.381       .  S
C1642      F1646   1.384       .  S
C1642      F1647   1.383       .  S
C1642      F1648   1.385       .  S
C1649      C1650   1.406       .  A
C1649      C1654   1.417       .  A
C1649      H1656   1.083       .  S
C1650      C1700   1.494   1_554  S
C1650      C1651   1.423       .  A
C1651      C1652   1.400       .  A
C1651      C2218   1.516   1_554  S
C1652      C1653   1.396       .  A
C1652      H1657   1.083   1_565  S
C1653      C1654   1.424       .  A
C1654      C1655   1.518       .  S
C1655      F1659   1.385       .  S
C1655      F1660   1.381       .  S
C1655      F1661   1.383       .  S
C1658      C2211   1.516       .  S
C1658      F1662   1.383   1_565  S
C1658      F1663   1.380       .  S
C1658      F1664   1.384       .  S
C1665      C2230   1.404   1_554  A
C1665      H1672   1.084       .  S
C1666      C2227   1.415   1_545  A
C1667      C2226   1.414   1_565  A
C1667      C1668   1.409       .  A
C1667      C1674   1.518       .  S
C1668      H1673   1.084       .  S
C1669      C1670   1.410   1_565  A
C1670      C2225   1.402       .  A
C1670      C2231   1.520       .  S
C1671      C2230   1.520   1_554  S
C1671      F1675   1.385       .  S
C1671      F2236   1.383   1_554  S
C1671      F1677   1.383       .  S
C1674      F1678   1.383   1_565  S
C1674      F1679   1.383       .  S
C1674      F1680   1.385       .  S
F1676      C2231   1.383       .  S
Fe1681     O1697   2.045       .  S
Fe1681     O1687   2.085       .  S
Fe1681     O1694   2.098       .  S
Fe1681     O1686   2.043       .  S
Fe1681     O1692   1.948       .  S
Fe1682     O1685   2.024       .  S
Fe1682     O1689   2.115       .  S
Fe1682     O1693   2.064       .  S
Fe1682     O1698   2.111       .  S
Fe1682     O1692   1.945       .  S
Fe1683     O1701   2.099       .  S
Fe1683     O1688   2.027       .  S
Fe1683     O1695   2.058       .  S
Fe1683     O1684   2.118       .  S
Fe1683     O1692   1.941       .  S
O1684      C1691   1.290       .  A
O1685      C1699   1.263       .  A
O1686      C1691   1.276       .  A
O1687      C1690   1.265       .  A
O1688      C1700   1.262       .  A
O1689      C1702   1.284       .  A
C1690      O1695   1.259       .  A
C1690      C2194   1.496   1_565  S
C1691      C2149   1.476       .  S
O1693      C1696   1.265       .  A
O1694      C1696   1.267       .  A
C1696      C2178   1.511       .  S
O1697      C1702   1.273       .  A
O1698      C1700   1.278       .  A
C1699      O1701   1.278       .  A
C1699      C2229   1.472       .  S
Fe1703     O1719   2.111       .  S
Fe1703     O1709   2.025       .  S
Fe1703     O1716   2.032       .  S
Fe1703     O1708   2.092       .  S
Fe1703     O1714   1.950       .  S
Fe1704     O1707   2.112       .  S
Fe1704     O1711   2.062       .  S
Fe1704     O1715   2.109       .  S
Fe1704     O1720   2.025       .  S
Fe1704     O1714   1.946       .  S
Fe1705     O1723   2.039       .  S
Fe1705     O1710   2.130       .  S
Fe1705     O1717   2.127       .  S
Fe1705     O1706   2.055       .  S
Fe1705     O1714   1.942       .  S
O1706      C1713   1.260       .  A
O1707      C1721   1.277       .  A
O1708      C1713   1.269       .  A
O1709      C1712   1.272       .  A
O1710      C1722   1.286       .  A
O1711      C1724   1.265       .  A
C1712      O1717   1.289       .  A
C1712      C2098   1.491       .  S
C1713      C2130   1.489       .  S
O1715      C1718   1.278       .  A
O1716      C1718   1.268       .  A
O1719      C1724   1.276       .  A
O1720      C1722   1.264       .  A
C1721      O1723   1.262       .  A
C1722      C2066   1.484       .  S
C1724      C2181   1.512       .  S
Fe1725     O1741   2.089       .  S
Fe1725     O1731   2.042       .  S
Fe1725     O1738   2.041       .  S
Fe1725     O1730   2.083       .  S
Fe1725     O1736   1.962       .  S
Fe1726     O1729   2.128       .  S
Fe1726     O1733   2.070       .  S
Fe1726     O1737   2.131       .  S
Fe1726     O1742   2.017       .  S
Fe1726     O1736   1.953       .  S
Fe1727     O1745   2.018       .  S
Fe1727     O1732   2.115       .  S
Fe1727     O1739   2.127       .  S
Fe1727     O1728   2.048   1_565  S
Fe1727     O1736   1.953       .  S
O1728      C1735   1.257   1_545  A
O1729      C1743   1.283       .  A
O1730      C1735   1.266       .  A
O1731      C1734   1.276       .  A
O1732      C1744   1.281       .  A
O1733      C1746   1.267       .  A
C1734      O1739   1.289       .  A
C1734      C2165   1.496       .  S
C1735      C2050   1.480   1_565  S
O1737      C1740   1.288       .  A
O1738      C1740   1.272       .  A
C1740      C2146   1.481       .  S
O1741      C1746   1.266       .  A
O1742      C1744   1.259       .  A
C1743      O1745   1.260       .  A
C1743      C2034   1.498       .  S
C1744      C2005   1.490       .  S
C1746      C2018   1.512       .  S
Fe1747     O1763   2.036       .  S
Fe1747     O1753   2.098       .  S
Fe1747     O1760   2.114       .  S
Fe1747     O1752   2.030       .  S
Fe1747     O1758   1.944       .  S
Fe1748     O1751   2.017       .  S
Fe1748     O1755   2.102       .  S
Fe1748     O1759   2.059       .  S
Fe1748     O1764   2.104       .  S
Fe1748     O1758   1.947       .  S
Fe1749     O1767   2.121       .  S
Fe1749     O1754   2.031       .  S
Fe1749     O1761   2.053       .  S
Fe1749     O1750   2.124       .  S
Fe1749     O1758   1.937       .  S
O1750      C1757   1.287       .  A
O1751      C1765   1.263       .  A
O1752      C1757   1.273       .  A
O1753      C1756   1.270       .  A
O1754      C1766   1.263       .  A
O1755      C1768   1.279       .  A
C1756      O1761   1.260       .  A
C1756      C1954   1.489       .  S
C1757      C2085   1.489       .  S
O1759      C1762   1.264       .  A
O1760      C1762   1.277       .  A
C1762      C2021   1.512       .  S
O1763      C1768   1.267       .  A
O1764      C1766   1.275       .  A
C1765      O1767   1.283       .  A
C1765      C1986   1.486       .  S
C1766      C1970   1.497       .  S
C1768      C2101   1.474       .  S
Fe1769     O1785   2.034       .  S
Fe1769     O1775   2.108       .  S
Fe1769     O1782   2.113       .  S
Fe1769     O1774   2.033       .  S
Fe1769     O1780   1.933       .  S
Fe1770     O1773   2.015       .  S
Fe1770     O1777   2.104       .  S
Fe1770     O1781   2.061       .  S
Fe1770     O1780   1.941       .  S
Fe1771     O1789   2.140       .  S
Fe1771     O1776   2.029       .  S
Fe1771     O1783   2.047       .  S
Fe1771     O1772   2.104       .  S
Fe1771     O1780   1.926       .  S
O1772      C1779   1.281       .  A
O1773      C1787   1.266       .  A
O1774      C1779   1.269       .  A
O1775      C1778   1.277       .  A
O1777      C1790   1.279       .  A
C1778      O1783   1.263       .  A
C1778      C1973   1.483       .  S
C1779      C1909   1.483       .  S
O1781      C1784   1.274       .  A
O1782      C1784   1.278       .  A
C1784      C1941   1.506       .  S
O1785      C1790   1.265       .  A
O1786      C1788   1.274       .  A
C1787      O1789   1.287       .  A
C1787      C2069   1.489       .  S
C1788      C1957   1.508       .  S
C1790      C1922   1.483       .  S
Fe1791     O1807   2.124       .  S
Fe1791     O1797   2.008       .  S
Fe1791     O1804   2.014       .  S
Fe1791     O1796   2.107       .  S
Fe1791     O1802   1.955       .  S
Fe1792     O1799   2.046       .  S
Fe1792     O1803   2.094       .  S
Fe1792     O1808   2.009       .  S
Fe1792     O1802   1.939       .  S
Fe1793     O1798   2.126       .  S
Fe1793     O1805   2.110       .  S
Fe1793     O1794   2.057       .  S
Fe1793     O1802   1.928       .  S
O1794      C1801   1.261       .  A
O1795      C1809   1.272       .  A
O1796      C1801   1.273       .  A
O1797      C1800   1.265       .  A
O1798      C1810   1.285       .  A
O1799      C1812   1.262       .  A
C1800      O1805   1.289       .  A
C1800      C1890   1.475       .  S
C1801      C2037   1.497   1_545  S
O1803      C1806   1.278       .  A
O1804      C1806   1.263       .  A
C1806      C1874   1.461       .  S
O1807      C1812   1.278       .  A
O1808      C1810   1.264       .  A
C1809      O1811   1.260   1_556  A
C1809      C2053   1.499       .  S
C1810      C2226   1.485       .  S
C1812      C1938   1.503       .  S
Fe1813     O1829   2.092       .  S
Fe1813     O1819   2.017       .  S
Fe1813     O1826   2.027       .  S
Fe1813     O1818   2.097       .  S
Fe1813     O1824   1.929       .  S
Fe1814     O1817   2.124       .  S
Fe1814     O1821   2.062       .  S
Fe1814     O1825   2.106       .  S
Fe1814     O1830   2.003       .  S
Fe1814     O1824   1.949       .  S
Fe1815     O1833   2.030       .  S
Fe1815     O1820   2.148       .  S
Fe1815     O1827   2.118       .  S
Fe1815     O1816   2.060       .  S
Fe1815     O1824   1.923       .  S
O1816      C1823   1.264       .  A
O1817      C1831   1.273       .  A
O1818      C1823   1.273       .  A
O1819      C1822   1.264       .  A
O1820      C1832   1.291       .  A
O1821      C1834   1.270       .  A
C1822      O1827   1.285       .  A
C1822      C1925   1.476       .  S
C1823      C2117   1.490       .  S
O1825      C1828   1.277       .  A
O1826      C1828   1.265       .  A
C1828      C1906   1.468       .  S
O1829      C1834   1.277       .  A
O1830      C1832   1.264       .  A
C1831      O1833   1.256       .  A
C1831      C2133   1.508       .  S
C1832      C1989   1.494       .  S
C1834      C1858   1.491       .  S
Fe1835     O1851   2.010       .  S
Fe1835     O1841   2.098       .  S
Fe1835     O1848   2.099       .  S
Fe1835     O1840   2.004       .  S
Fe1835     O1846   1.925       .  S
Fe1836     O1839   1.994       .  S
Fe1836     O1843   2.105       .  S
Fe1836     O1847   2.057       .  S
Fe1836     O1852   2.143       .  S
Fe1836     O1846   1.948       .  S
Fe1837     O1855   2.167       .  S
Fe1837     O1842   2.023       .  S
Fe1837     O1849   2.063       .  S
Fe1837     O1838   2.104       .  S
Fe1837     O1846   1.912       .  S
O1838      C1845   1.283       .  A
O1839      C1853   1.258       .  A
O1840      C1845   1.260       .  A
O1841      C1844   1.276       .  A
O1842      C1854   1.248       .  A
O1843      C1856   1.281       .  A
C1844      O1849   1.269       .  A
C1844      C2213   1.490   1_545  S
C1845      C1877   1.478       .  S
O1847      C1850   1.271       .  A
O1848      C1850   1.276       .  A
C1850      C1861   1.492       .  S
O1851      C1856   1.262       .  A
O1852      C1854   1.274       .  A
C1853      O1855   1.294       .  A
C1853      C2002   1.481       .  S
C1854      C2197   1.500       .  S
C1856      C1893   1.466       .  S
C1857      C1858   1.405       .  A
C1857      C1862   1.405       .  A
C1857      H1864   1.082       .  S
C1858      C1859   1.419       .  A
C1859      C1860   1.411       .  A
C1859      C1866   1.518       .  S
C1860      C1861   1.408       .  A
C1860      H1865   1.083       .  S
C1861      C1862   1.423       .  A
C1862      C1863   1.522       .  S
C1863      F1867   1.385       .  S
C1863      F1868   1.383       .  S
C1863      F1869   1.382       .  S
C1866      F1870   1.384       .  S
C1866      F1871   1.382       .  S
C1866      F1872   1.385       .  S
C1873      C1878   1.402       .  A
C1873      H1880   1.083       .  S
C1875      C1876   1.397       .  A
C1876      C1877   1.399       .  A
C1876      H1881   1.080       .  S
C1877      C1878   1.430       .  A
C1878      C1879   1.524       .  S
C1879      F1883   1.385       .  S
C1879      F1884   1.383       .  S
C1879      F1885   1.384       .  S
C1882      F1886   1.379       .  S
C1882      F1887   1.383       .  S
C1882      F1888   1.385   1_655  S
C1889      C1890   1.397       .  A
C1889      C1894   1.396       .  A
C1889      H1896   1.083       .  S
C1890      C1891   1.429       .  A
C1891      C1892   1.403       .  A
C1891      C1898   1.523       .  S
C1892      C1893   1.395       .  A
C1892      H1897   1.083       .  S
C1893      C1894   1.421       .  A
C1894      C1895   1.519       .  S
C1895      F1899   1.385       .  S
C1895      F1900   1.378       .  S
C1895      F1901   1.379       .  S
C1898      F1902   1.383       .  S
C1898      F1903   1.383       .  S
C1898      F1904   1.385       .  S
C1905      C1906   1.402       .  A
C1905      C1910   1.403       .  A
C1905      H1912   1.084       .  S
C1906      C1907   1.409       .  A
C1907      C1908   1.406       .  A
C1907      C1914   1.518       .  S
C1908      C1909   1.411       .  A
C1908      H1913   1.082       .  S
C1909      C1910   1.418       .  A
C1910      C1911   1.518       .  S
C1911      F1915   1.385       .  S
C1911      F1916   1.383       .  S
C1911      F1917   1.381       .  S
C1914      F1918   1.383       .  S
C1914      F1919   1.383       .  S
C1914      F1920   1.385       .  S
C1921      C1926   1.403       .  A
C1921      H1928   1.083       .  S
C1922      C1923   1.421   1_655  A
C1923      C1930   1.518   1_455  S
C1924      C1925   1.400       .  A
C1924      H1929   1.085       .  S
C1925      C1926   1.423       .  A
C1926      C1927   1.524       .  S
C1927      F1931   1.385       .  S
C1927      F1932   1.383       .  S
C1927      F1933   1.382       .  S
C1930      F1934   1.384       .  S
C1930      F1935   1.378       .  S
C1930      F1936   1.385   1_655  S
C1937      C1938   1.407       .  A
C1937      C1942   1.416       .  A
C1937      H1944   1.082       .  S
C1938      C1939   1.427       .  A
C1939      C1940   1.409       .  A
C1940      C1941   1.406       .  A
C1941      C1942   1.425       .  A
C1942      C1943   1.519       .  S
C1943      F1947   1.385       .  S
C1943      F1948   1.384       .  S
C1943      F1949   1.383       .  S
C1946      F1950   1.383   1_554  S
C1946      F1951   1.384       .  S
C1946      F1952   1.385   1_554  S
C1953      C1954   1.408       .  A
C1953      C1958   1.417       .  A
C1953      H1960   1.083       .  S
C1954      C1955   1.410       .  A
C1955      C1956   1.407       .  A
C1955      C1962   1.519       .  S
C1956      C1957   1.416       .  A
C1956      H1961   1.082       .  S
C1957      C1958   1.424       .  A
C1958      C1959   1.519       .  S
C1959      F1963   1.384       .  S
C1959      F1964   1.384       .  S
C1959      F1965   1.383       .  S
C1962      F1966   1.383       .  S
C1962      F1967   1.382       .  S
C1962      F1968   1.384       .  S
C1969      C1970   1.412       .  A
C1969      C1974   1.404       .  A
C1969      H1976   1.083       .  S
C1970      C1971   1.423       .  A
C1971      C1972   1.413       .  A
C1971      C1978   1.519       .  S
C1972      C1973   1.406       .  A
C1972      H1977   1.083       .  S
C1973      C1974   1.411       .  A
C1974      C1975   1.514       .  S
C1975      F1979   1.384       .  S
C1975      F1980   1.382       .  S
C1975      F1981   1.383       .  S
C1978      F1982   1.383       .  S
C1978      F1983   1.382       .  S
C1978      F1984   1.385       .  S
C1985      C1986   1.413       .  A
C1985      C1990   1.410       .  A
C1985      H1992   1.083       .  S
C1986      C1987   1.412       .  A
C1987      C1988   1.407       .  A
C1987      C1994   1.521       .  S
C1988      C1989   1.416       .  A
C1988      H1993   1.082       .  S
C1989      C1990   1.414       .  A
C1990      C1991   1.517       .  S
C1991      F1995   1.385       .  S
C1991      F1996   1.382       .  S
C1991      F1997   1.383       .  S
C1994      F1998   1.382       .  S
C1994      F1999   1.382       .  S
C1994      F2000   1.385       .  S
C2001      C2002   1.396   1_565  A
C2001      C2006   1.409       .  A
C2001      H2008   1.083       .  S
C2002      C2003   1.426       .  A
C2003      C2004   1.408       .  A
C2003      C2010   1.519       .  S
C2004      C2005   1.398   1_545  A
C2004      H2009   1.082       .  S
C2005      C2006   1.431       .  A
C2006      C2007   1.520       .  S
C2007      F2011   1.385       .  S
C2007      F2012   1.383       .  S
C2007      F2013   1.382       .  S
C2010      F2014   1.382       .  S
C2010      F2015   1.381       .  S
C2010      F2016   1.385       .  S
C2017      C2018   1.407       .  A
C2017      C2022   1.414       .  A
C2017      H2024   1.082       .  S
C2018      C2019   1.428       .  A
C2019      C2020   1.415       .  A
C2019      C2026   1.522       .  S
C2020      C2021   1.408       .  A
C2020      H2025   1.082       .  S
C2021      C2022   1.427       .  A
C2022      C2023   1.521       .  S
C2023      F2027   1.385       .  S
C2023      F2028   1.383       .  S
C2023      F2029   1.383       .  S
C2026      F2030   1.382       .  S
C2026      F2031   1.383       .  S
C2026      F2032   1.385       .  S
C2033      C2034   1.404       .  A
C2033      C2038   1.418       .  A
C2033      H2040   1.082       .  S
C2034      C2035   1.426       .  A
C2035      C2036   1.407       .  A
C2035      C2042   1.517       .  S
C2036      C2037   1.400       .  A
C2036      H2041   1.083   1_565  S
C2037      C2038   1.426       .  A
C2038      C2039   1.518       .  S
C2039      F2043   1.385       .  S
C2039      F2044   1.383       .  S
C2039      F2045   1.382       .  S
C2042      F2046   1.384       .  S
C2042      F2047   1.383   1_565  S
C2042      F2048   1.384       .  S
C2049      C2050   1.405       .  A
C2049      C2054   1.412       .  A
C2049      H2056   1.083       .  S
C2050      C2051   1.410       .  A
C2051      C2052   1.406       .  A
C2051      C2058   1.519       .  S
C2052      C2053   1.415       .  A
C2052      H2057   1.082       .  S
C2053      C2054   1.422       .  A
C2054      C2055   1.517       .  S
C2055      F2059   1.385       .  S
C2055      F2060   1.383       .  S
C2055      F2061   1.384       .  S
C2058      F2062   1.382   1_545  S
C2058      F2063   1.383       .  S
C2058      F2064   1.385       .  S
C2065      C2066   1.409       .  A
C2065      H2072   1.084       .  S
C2066      C2067   1.411   1_556  A
C2067      C2074   1.512       .  S
C2068      H2073   1.084       .  S
C2070      C2071   1.515       .  S
C2071      F2075   1.384       .  S
C2071      F2077   1.377       .  S
C2074      F2079   1.383       .  S
C2081      C2082   1.415       .  A
C2081      C2086   1.407       .  A
C2082      C2083   1.424       .  A
C2083      C2084   1.406       .  A
C2083      C2090   1.522       .  S
C2084      C2085   1.407       .  A
C2084      H2089   1.082       .  S
C2085      C2086   1.414       .  A
C2086      C2087   1.520       .  S
C2087      F2091   1.384       .  S
C2087      F2092   1.383       .  S
C2087      F2093   1.383       .  S
C2090      F2096   1.385       .  S
C2097      C2098   1.414       .  A
C2097      C2102   1.405       .  A
C2097      H2104   1.083       .  S
C2098      C2099   1.419       .  A
C2099      C2100   1.408       .  A
C2099      C2106   1.519       .  S
C2100      C2101   1.405       .  A
C2100      H2105   1.083       .  S
C2101      C2102   1.408       .  A
C2102      C2103   1.518       .  S
C2103      F2107   1.384       .  S
C2103      F2108   1.383       .  S
C2103      F2109   1.383       .  S
C2106      F2110   1.383       .  S
C2106      F2111   1.383       .  S
C2106      F2112   1.385       .  S
C2113      C2114   1.405       .  A
C2113      C2118   1.416       .  A
C2113      H2120   1.082       .  S
C2114      C2115   1.423       .  A
C2115      C2116   1.407       .  A
C2115      C2122   1.514       .  S
C2116      C2117   1.400       .  A
C2116      H2121   1.084       .  S
C2117      C2118   1.423       .  A
C2118      C2119   1.518       .  S
C2119      F2123   1.385       .  S
C2119      F2124   1.382       .  S
C2119      F2125   1.382       .  S
C2122      F2126   1.384       .  S
C2122      F2128   1.385       .  S
C2129      C2130   1.408       .  A
C2129      C2134   1.416       .  A
C2129      H2136   1.083       .  S
C2130      C2131   1.411       .  A
C2131      C2132   1.407       .  A
C2131      C2138   1.520       .  S
C2132      C2133   1.416       .  A
C2132      H2137   1.082       .  S
C2133      C2134   1.422       .  A
C2134      C2135   1.517       .  S
C2135      F2139   1.385       .  S
C2135      F2140   1.383       .  S
C2135      F2141   1.384       .  S
C2138      F2142   1.381       .  S
C2138      F2143   1.383       .  S
C2138      F2144   1.385       .  S
C2145      C2146   1.402       .  A
C2145      C2150   1.412       .  A
C2145      H2152   1.081       .  S
C2146      C2147   1.416       .  A
C2147      C2148   1.401       .  A
C2147      C2154   1.505       .  S
C2148      C2149   1.395       .  A
C2148      H2153   1.084       .  S
C2149      C2150   1.420       .  A
C2150      C2151   1.518       .  S
C2151      F2155   1.384       .  S
C2151      F2156   1.381       .  S
C2151      F2157   1.382       .  S
C2154      F2158   1.379       .  S
C2154      F2159   1.383       .  S
C2154      F2160   1.384   1_565  S
C2161      C2162   1.405   1_655  A
C2161      C2166   1.411       .  A
C2162      C2163   1.409   1_455  A
C2163      C2164   1.408       .  A
C2163      C2170   1.518       .  S
C2164      C2165   1.414       .  A
C2164      H2169   1.083       .  S
C2165      C2166   1.421       .  A
C2166      C2167   1.520       .  S
C2167      F2171   1.385   1_565  S
C2167      F2172   1.383   1_565  S
C2167      F2173   1.382   1_565  S
C2170      F2174   1.382   1_655  S
C2170      F2176   1.384       .  S
C2177      C2178   1.408       .  A
C2177      C2182   1.412       .  A
C2177      H2184   1.082       .  S
C2178      C2179   1.426       .  A
C2179      C2180   1.417       .  A
C2179      C2186   1.521       .  S
C2180      C2181   1.410       .  A
C2180      H2185   1.082       .  S
C2181      C2182   1.427       .  A
C2182      C2183   1.523       .  S
C2183      F2188   1.383       .  S
C2186      F2190   1.383       .  S
C2186      F2191   1.383       .  S
C2186      F2192   1.385       .  S
C2193      C2194   1.415       .  A
C2193      C2198   1.419       .  A
C2193      H2200   1.081       .  S
C2194      C2195   1.416       .  A
C2195      C2196   1.403       .  A
C2195      C2202   1.523   1_545  S
C2196      C2197   1.413       .  A
C2196      H2201   1.081       .  S
C2197      C2198   1.415       .  A
C2198      C2199   1.517       .  S
C2199      F2203   1.384       .  S
C2199      F2204   1.383       .  S
C2199      F2205   1.380       .  S
C2202      F2206   1.384       .  S
C2202      F2207   1.382       .  S
C2202      F2208   1.385       .  S
C2209      C2210   1.407       .  A
C2209      C2214   1.418       .  A
C2209      H2216   1.084       .  S
C2210      C2211   1.424       .  A
C2211      C2212   1.400       .  A
C2212      C2213   1.396       .  A
C2212      H2217   1.084   1_565  S
C2213      C2214   1.423       .  A
C2214      C2215   1.517       .  S
C2215      F2219   1.385       .  S
C2215      F2220   1.381       .  S
C2215      F2221   1.383       .  S
C2218      F2222   1.383   1_565  S
C2218      F2223   1.381       .  S
C2218      F2224   1.384   1_556  S
C2225      H2232   1.084       .  S
C2227      C2228   1.410       .  A
C2227      C2234   1.517       .  S
C2228      H2233   1.084       .  S
C2229      C2230   1.412   1_565  A
C2231      F2235   1.385       .  S
C2231      F2237   1.383       .  S
C2234      F2238   1.382   1_565  S
C2234      F2239   1.382       .  S
C2234      F2240   1.384       .  S
