geometry optimzed in LAMMPS
_audit_creation_date              2020-11-30 
_audit_creation_method            'lammps2cif' 
_symmetry_space_group_name_H-M    'P1' 
_symmetry_Int_Tables_number       1 
_symmetry_cell_setting            triclinic 
loop_ 
_symmetry_equiv_pos_as_xyz 
  x,y,z 
_cell_length_a                    69.1852424644498 
_cell_length_b                    69.08760791760456 
_cell_length_c                    69.07344794224673 
_cell_angle_alpha                 90.0360038910097 
_cell_angle_beta                  89.95566662703374 
_cell_angle_gamma                 90.06013210742452 
loop_ 
_atom_site_label 
_atom_site_type_symbol 
_atom_site_fract_x 
_atom_site_fract_y 
_atom_site_fract_z 
_atom_site_charge 
N1          N  0.39720939  0.24392665  0.43953545    -0.26610
N2          N  0.38332400  0.25706880  0.43913188    -0.34470
C3          C  0.37133685  0.25409554  0.45417823     0.01730
C4          C  0.37800760  0.23831874  0.46441999     0.07760
C5          C  0.39445848  0.23226277  0.45487629    -0.05340
H6          H  0.35894490  0.26299919  0.45762193     0.08420
H7          H  0.40389930  0.22047332  0.45894197     0.09620
Cu8        Cu  0.38166098  0.27886670  0.41861406     0.44170
Cu9        Cu  0.41946497  0.24266679  0.41949187     0.41990
Cu10       Cu  0.41880344  0.27902124  0.38171987     0.43880
N11         N  0.38324609  0.29927135  0.39669570    -0.33990
N12         N  0.39679003  0.29933154  0.38321983    -0.28250
C13         C  0.39377326  0.31435612  0.37124934    -0.04350
C14         C  0.37747163  0.32435686  0.37743502     0.07870
C15         C  0.37124424  0.31424948  0.39367347     0.01660
H16         H  0.40290234  0.31762668  0.35897440     0.09310
H17         H  0.35891191  0.31740862  0.40274941     0.08390
N18         N  0.43942211  0.25732532  0.38356818    -0.35440
N19         N  0.43973371  0.24414171  0.39744703    -0.27620
C20         C  0.45511477  0.23253898  0.39482053    -0.02860
C21         C  0.46479938  0.23867695  0.37846281     0.05750
C22         C  0.45458018  0.25443457  0.37170868     0.03840
H23         H  0.45908318  0.22070365  0.40426066     0.08950
H24         H  0.45808574  0.26335016  0.35931943     0.07780
N25         N  0.30103140  0.39521305  0.38325124    -0.26610
N26         N  0.30098411  0.38171389  0.39677529    -0.34470
C27         C  0.31596135  0.36969844  0.39376745     0.01730
C28         C  0.32604936  0.37587294  0.37749253     0.07760
C29         C  0.31603923  0.39215475  0.37127192    -0.05340
H30         H  0.31913568  0.35739256  0.40287401     0.08420
H31         H  0.31928207  0.40123814  0.35895643     0.09620
Cu32       Cu  0.28058188  0.38021326  0.41873407     0.44170
Cu33       Cu  0.28072184  0.41722778  0.38162847     0.41990
Cu34       Cu  0.24428160  0.41797254  0.41927105     0.43880
N35         N  0.25875318  0.38200922  0.43924741    -0.33990
N36         N  0.24556082  0.39585601  0.43951570    -0.28250
C37         C  0.23386140  0.39317482  0.45485292    -0.04350
C38         C  0.23995078  0.37681759  0.46454805     0.07870
C39         C  0.25578257  0.37013084  0.45438460     0.01660
H40         H  0.22201450  0.40259593  0.45880647     0.09310
H41         H  0.26470345  0.35777875  0.45792563     0.08390
N42         N  0.24574581  0.43816123  0.39710728    -0.35440
N43         N  0.25897628  0.43782353  0.38327256    -0.27620
C44         C  0.25609662  0.45293576  0.37134126    -0.02860
C45         C  0.24028739  0.46315568  0.37799157     0.05750
C46         C  0.23412483  0.45351689  0.39437665     0.03840
H47         H  0.26506843  0.45642672  0.35898845     0.08950
H48         H  0.22226967  0.45752027  0.40378123     0.07780
C49         C  0.36866411  0.34196075  0.36864556     0.03810
C50         C  0.35206983  0.35041862  0.37682268    -0.12340
C51         C  0.34363391  0.36703633  0.36868135     0.01310
C52         C  0.35209963  0.37518607  0.35206508    -0.10860
C53         C  0.36868760  0.36704042  0.34358592     0.03800
C54         C  0.37681084  0.35042371  0.35202268    -0.10290
H55         H  0.34570294  0.34405455  0.38957056     0.09400
H56         H  0.34575983  0.38792998  0.34571484     0.06930
H57         H  0.38952021  0.34405595  0.34562353     0.06770
N58         N  0.38325359  0.39522536  0.30094491    -0.26610
N59         N  0.39684429  0.38182318  0.30097132    -0.34470
C60         C  0.39384062  0.36980057  0.31597238     0.01730
C61         C  0.37750148  0.37588110  0.32598770     0.07760
C62         C  0.37123868  0.39210541  0.31591526    -0.05340
H63         H  0.40300427  0.35756982  0.31922394     0.08420
H64         H  0.35887640  0.40111620  0.31909208     0.09620
Cu65       Cu  0.41888718  0.38050419  0.28063916     0.44170
Cu66       Cu  0.38159171  0.41722626  0.28064106     0.41990
Cu67       Cu  0.41933563  0.41829635  0.24433787     0.43880
N68         N  0.43941644  0.38247055  0.25882051    -0.33990
N69         N  0.43963300  0.39632617  0.24561136    -0.28250
C70         C  0.45495825  0.39374263  0.23389235    -0.04350
C71         C  0.46470636  0.37743674  0.23999487     0.07870
C72         C  0.45458700  0.37068168  0.25584612     0.01660
H73         H  0.45885802  0.40319066  0.22202684     0.09310
H74         H  0.45816965  0.35832906  0.26476486     0.08390
N75         N  0.39714702  0.43833944  0.24579631    -0.35440
N76         N  0.38326143  0.43788231  0.25896439    -0.27620
C77         C  0.37131659  0.45295649  0.25608352    -0.02860
C78         C  0.37803185  0.46326803  0.24034348     0.05750
C79         C  0.39444886  0.45373545  0.23421542     0.03840
H80         H  0.35892179  0.45636184  0.26501387     0.08950
H81         H  0.40389497  0.45783394  0.22241573     0.07780
N82         N  0.75540220  0.39594043  0.43961054    -0.26610
N83         N  0.74219731  0.38208346  0.43933253    -0.34470
C84         C  0.74510466  0.37022285  0.45447676     0.01730
C85         C  0.76090139  0.37695870  0.46464306     0.07760
C86         C  0.76704831  0.39330012  0.45495646    -0.05340
H87         H  0.73616124  0.35786485  0.45802174     0.08420
H88         H  0.77889162  0.40274005  0.45891916     0.09620
Cu89       Cu  0.72043923  0.38029813  0.41883537     0.44170
Cu90       Cu  0.75677479  0.41802368  0.41942519     0.41990
Cu91       Cu  0.72034225  0.41744025  0.38188484     0.43880
N92         N  0.70009515  0.38186170  0.39691811    -0.33990
N93         N  0.70005511  0.39540700  0.38344463    -0.28250
C94         C  0.68505975  0.39236505  0.37147075    -0.04350
C95         C  0.67505852  0.37604401  0.37765297     0.07870
C96         C  0.68512881  0.36982831  0.39389106     0.01660
H97         H  0.68182107  0.40148694  0.35919294     0.09310
H98         H  0.68195914  0.35748456  0.40296120     0.08390
N99         N  0.74210237  0.43800371  0.38360643    -0.35440
N100        N  0.75536277  0.43825634  0.39738948    -0.27620
C101        C  0.76702005  0.45361328  0.39472052    -0.02860
C102        C  0.76082182  0.46334713  0.37843911     0.05750
C103        C  0.74497972  0.45318706  0.37177165     0.03840
H104        H  0.77890280  0.45755652  0.40410742     0.08950
H105        H  0.73599334  0.45675747  0.35947178     0.07780
N106        N  0.56123043  0.39582524  0.24626138    -0.26610
N107        N  0.56179302  0.38182580  0.25930453    -0.34470
C108        C  0.54672149  0.36983707  0.25646748     0.01730
C109        C  0.53626138  0.37665728  0.24090344     0.07760
C110        C  0.54573331  0.39316787  0.23482056    -0.05340
H111        H  0.54342796  0.35733922  0.26531019     0.08420
H112        H  0.54155881  0.40266484  0.22310151     0.09620
Cu113      Cu  0.58256112  0.38007978  0.28078963     0.44170
Cu114      Cu  0.58139795  0.41801682  0.24471222     0.41990
Cu115      Cu  0.61950814  0.41727290  0.28063715     0.43880
N116        N  0.60451944  0.38173834  0.30106535    -0.33990
N117        N  0.61799555  0.39528514  0.30105813    -0.28250
C118        C  0.62995376  0.39227847  0.31608586    -0.04350
C119        C  0.62374879  0.37598560  0.32614322     0.07870
C120        C  0.60752186  0.36975566  0.31607442     0.01660
H121        H  0.64223539  0.40140093  0.31931672     0.09310
H122        H  0.59842849  0.35743811  0.31928214     0.08390
N123        N  0.61764623  0.43779672  0.25877749    -0.35440
N124        N  0.60363982  0.43815588  0.24575239    -0.27620
C125        C  0.60626701  0.45348716  0.23403179    -0.02860
C126        C  0.62276860  0.46308192  0.23990663     0.05750
C127        C  0.62958696  0.45286253  0.25565540     0.03840
H128        H  0.59671206  0.45751020  0.22231653     0.08950
H129        H  0.64205410  0.45634321  0.26444520     0.07780
C130        C  0.63247274  0.34209084  0.36883596     0.03810
C131        C  0.64904857  0.35057857  0.37699864    -0.12340
C132        C  0.65749666  0.36720133  0.36884631     0.01310
C133        C  0.64907469  0.37533943  0.35222969    -0.10860
C134        C  0.63250304  0.36717017  0.34375829     0.03800
C135        C  0.62435049  0.35053967  0.35221057    -0.10290
H136        H  0.65539106  0.34423008  0.38974751     0.09400
H137        H  0.65544124  0.38808127  0.34586159     0.06930
H138        H  0.61164196  0.34414842  0.34582785     0.06770
N139        N  0.56143198  0.24412856  0.39746817    -0.26610
N140        N  0.56178303  0.25735058  0.38362788    -0.34470
C141        C  0.54665251  0.25448651  0.37174487     0.01730
C142        C  0.53640348  0.23870063  0.37844219     0.07760
C143        C  0.54604532  0.23251903  0.39478987    -0.05340
H144        H  0.54318140  0.26344533  0.35938802     0.08420
H145        H  0.54203426  0.22065728  0.40419560     0.09620
Cu146      Cu  0.58239671  0.27906396  0.38188773     0.44170
Cu147      Cu  0.58163826  0.24266489  0.41955608     0.41990
Cu148      Cu  0.61946735  0.27893023  0.41888259     0.43880
N149        N  0.60438874  0.29939034  0.38344942    -0.33990
N150        N  0.61790970  0.29935850  0.39692980    -0.28250
C151        C  0.62989907  0.31437711  0.39389465    -0.04350
C152        C  0.62367832  0.32446733  0.37765018     0.07870
C153        C  0.60740137  0.31441970  0.37147492     0.01660
H154        H  0.64221800  0.31757605  0.40296435     0.09310
H155        H  0.59828598  0.31765779  0.35920060     0.08390
N156        N  0.61766710  0.25709226  0.43941884    -0.35440
N157        N  0.60376325  0.24393476  0.43973285    -0.27620
C158        C  0.60639155  0.23224784  0.45507432    -0.02860
C159        C  0.62278223  0.23829212  0.46472818     0.05750
C160        C  0.62954544  0.25409555  0.45453338     0.03840
H161        H  0.59691276  0.22043569  0.45905820     0.08950
H162        H  0.64193572  0.26299203  0.45805030     0.07780
C163        C  0.50059889  0.20970850  0.34896715     0.03810
C164        C  0.48306560  0.21690486  0.35635512    -0.12340
C165        C  0.48307227  0.23111832  0.37083910     0.01310
C166        C  0.50060160  0.23815566  0.37808656    -0.10860
C167        C  0.51812842  0.23115626  0.37080575     0.03800
C168        C  0.51813163  0.21701463  0.35625485    -0.10290
H169        H  0.46942878  0.21131162  0.35102129     0.09400
H170        H  0.50060355  0.24912369  0.38932366     0.06930
H171        H  0.53176661  0.21180551  0.35054640     0.06770
C172        C  0.50056842  0.15037153  0.28958458     0.03810
C173        C  0.51809207  0.14306337  0.28228463    -0.12340
C174        C  0.51806995  0.12850636  0.26814888     0.01310
C175        C  0.50053449  0.12124724  0.26114253    -0.10860
C176        C  0.48301606  0.12851791  0.26817086     0.03800
C177        C  0.48302636  0.14300375  0.28238111    -0.10290
H178        H  0.53173465  0.14876061  0.28749368     0.09400
H179        H  0.50052113  0.11001268  0.25017188     0.06930
H180        H  0.46939579  0.14835133  0.28796899     0.06770
C181        C  0.50051838  0.34738379  0.21155115     0.03810
C182        C  0.48300722  0.35546332  0.21810866    -0.12340
C183        C  0.48298922  0.36983801  0.23243380     0.01310
C184        C  0.50048630  0.37672259  0.23986694    -0.10860
C185        C  0.51799369  0.36897575  0.23337821     0.03800
C186        C  0.51800282  0.35413808  0.21953562    -0.10290
H187        H  0.46937095  0.35070745  0.21203791     0.09400
H188        H  0.50047447  0.38802109  0.25077222     0.06930
H189        H  0.53164787  0.34791758  0.21501184     0.06770
C190        C  0.50051044  0.28779658  0.15196709     0.03810
C191        C  0.48299626  0.28126568  0.14386732    -0.12340
C192        C  0.48296900  0.26694899  0.12948642     0.01310
C193        C  0.50045666  0.25949676  0.12261521    -0.10860
C194        C  0.51796673  0.26596040  0.13038135     0.03800
C195        C  0.51798818  0.27979575  0.14522630    -0.10290
H196        H  0.46936564  0.28734938  0.14861397     0.09400
H197        H  0.50043537  0.24859890  0.11130911     0.06930
H198        H  0.53163592  0.28430662  0.15145767     0.06770
N199        N  0.75546310  0.05984915  0.10391375    -0.26610
N200        N  0.74229971  0.06022620  0.11780861    -0.34470
C201        C  0.74523513  0.04517497  0.12978647     0.01730
C202        C  0.76100736  0.03495335  0.12309243     0.07760
C203        C  0.76709971  0.04451513  0.10664399    -0.05340
H204        H  0.73631092  0.04171677  0.14218314     0.08420
H205        H  0.77890765  0.04047234  0.09719656     0.09620
Cu206      Cu  0.72053077  0.08070783  0.11947143     0.44170
Cu207      Cu  0.75681464  0.07992629  0.08167866     0.41990
Cu208      Cu  0.72041685  0.11749912  0.08221656     0.43880
N209        N  0.70015526  0.10257486  0.11778686    -0.33990
N210        N  0.70011737  0.11599350  0.10419007    -0.28250
C211        C  0.68510660  0.12795573  0.10714725    -0.04350
C212        C  0.67508982  0.12182285  0.12347001     0.07870
C213        C  0.68516570  0.10562602  0.12977666     0.01660
H214        H  0.68186922  0.14018935  0.09796723     0.09310
H215        H  0.68199000  0.09660289  0.14215386     0.08390
N216        N  0.74215597  0.11577128  0.06168937    -0.35440
N217        N  0.75539674  0.10197599  0.06141066    -0.27620
C218        C  0.76704395  0.10468144  0.04604939    -0.02860
C219        C  0.76085674  0.12100045  0.03636275     0.05750
C220        C  0.74503370  0.12764794  0.04654217     0.03840
H221        H  0.77892503  0.09530953  0.04208090     0.08950
H222        H  0.73605880  0.13996400  0.04301270     0.07780
N223        N  0.56113874  0.25301903  0.10348680    -0.26610
N224        N  0.56173828  0.24002229  0.11752635    -0.34470
C225        C  0.54669774  0.24289039  0.12954282     0.01730
C226        C  0.53622231  0.25842826  0.12269615     0.07760
C227        C  0.54564893  0.26446010  0.10614109    -0.05340
H228        H  0.54343389  0.23408499  0.14207575     0.08420
H229        H  0.54145066  0.27614574  0.09661474     0.09620
Cu230      Cu  0.58252408  0.21856954  0.11927647     0.44170
Cu231      Cu  0.58126562  0.25451194  0.08127160     0.41990
Cu232      Cu  0.61951847  0.21875138  0.08215427     0.43880
N233        N  0.60450431  0.19833295  0.11762926    -0.33990
N234        N  0.61799720  0.19835925  0.10410305    -0.28250
C235        C  0.62996977  0.18335485  0.10710919    -0.04350
C236        C  0.62375576  0.17329210  0.12338533     0.07870
C237        C  0.60750994  0.18332848  0.12960621     0.01660
H238        H  0.64226445  0.18014660  0.09799912     0.09310
H239        H  0.59840476  0.18010687  0.14191120     0.08390
N240        N  0.61761407  0.24054102  0.06163187    -0.35440
N241        N  0.60353903  0.25348054  0.06118906    -0.27620
C242        C  0.60615132  0.26515974  0.04583068    -0.02860
C243        C  0.62271818  0.25934585  0.03632687     0.05750
C244        C  0.62959623  0.24368209  0.04661100     0.03840
H245        H  0.59655647  0.27681498  0.04174033     0.08950
H246        H  0.64212216  0.23495445  0.04320274     0.07780
C247        C  0.65751263  0.13063813  0.13224113     0.03810
C248        C  0.64903320  0.12249934  0.14884643    -0.12340
C249        C  0.63244638  0.13066331  0.15728635     0.01310
C250        C  0.62433711  0.14726414  0.14881608    -0.10860
C251        C  0.63251556  0.15570177  0.13220139     0.03800
C252        C  0.64910661  0.14724172  0.12406640    -0.10290
H253        H  0.65535832  0.10975737  0.15521604     0.09400
H254        H  0.61161953  0.15364046  0.15518473     0.06930
H255        H  0.65549849  0.15360675  0.11133357     0.06770
N256        N  0.60430761  0.11607886  0.19992682    -0.26610
N257        N  0.61788011  0.10266220  0.20001559    -0.34470
C258        C  0.62988862  0.10569474  0.18502607     0.01730
C259        C  0.62362872  0.12187798  0.17488938     0.07760
C260        C  0.60730661  0.12802356  0.18487515    -0.05340
H261        H  0.64224888  0.09666612  0.18189189     0.08420
H262        H  0.59815486  0.14025202  0.18158380     0.09620
Cu263      Cu  0.61952861  0.08080571  0.22044782     0.44170
Cu264      Cu  0.58229917  0.11756959  0.22021843     0.41990
Cu265      Cu  0.58163030  0.07981869  0.25657458     0.43880
N266        N  0.61786864  0.06028532  0.24222642    -0.33990
N267        N  0.60391568  0.05980484  0.25532241    -0.28250
C268        C  0.60664566  0.04444819  0.26695839    -0.04350
C269        C  0.62316374  0.03499128  0.26094857     0.07870
C270        C  0.62988852  0.04529408  0.24521350     0.01660
H271        H  0.59715528  0.04031812  0.27871136     0.09310
H272        H  0.64232685  0.04191766  0.23633306     0.08390
N273        N  0.56136946  0.10186938  0.25512471    -0.35440
N274        N  0.56170444  0.11573197  0.24192465    -0.27620
C275        C  0.54657225  0.12759739  0.24480921    -0.02860
C276        C  0.53633322  0.12087057  0.26058611     0.05750
C277        C  0.54598395  0.10452005  0.26674234     0.03840
H278        H  0.54309880  0.13996921  0.23587386     0.08950
H279        H  0.54198663  0.09510227  0.27859974     0.07780
N280        N  0.43979506  0.39611163  0.75514476    -0.26610
N281        N  0.43939933  0.38217935  0.74200450    -0.34470
C282        C  0.45446707  0.37025254  0.74493734     0.01730
C283        C  0.46472541  0.37701446  0.76068263     0.07760
C284        C  0.45515796  0.39345408  0.76676388    -0.05340
H285        H  0.45789855  0.35782450  0.73604261     0.08420
H286        H  0.45920087  0.40293020  0.77856501     0.09620
Cu287      Cu  0.41882131  0.38036666  0.72029460     0.44170
Cu288      Cu  0.41964488  0.41825688  0.75649586     0.41990
Cu289      Cu  0.38177447  0.41736454  0.72031865     0.43880
N290        N  0.39686611  0.38184017  0.69996172    -0.33990
N291        N  0.38335391  0.39532278  0.69995861    -0.28250
C292        C  0.37138348  0.39222741  0.68495345    -0.04350
C293        C  0.37760587  0.37593884  0.67490845     0.07870
C294        C  0.39386573  0.36980260  0.68496728     0.01660
H295        H  0.35907834  0.40129037  0.68173268     0.09310
H296        H  0.40297465  0.35751158  0.68176012     0.08390
N297        N  0.38357583  0.43800298  0.74208364    -0.35440
N298        N  0.39750516  0.43840662  0.75519008    -0.27620
C299        C  0.39487343  0.45379551  0.76683396    -0.02860
C300        C  0.37845306  0.46338524  0.76081983     0.05750
C301        C  0.37167249  0.45310194  0.74507733     0.03840
H302        H  0.40435929  0.45784403  0.77860895     0.08950
H303        H  0.35925236  0.45654515  0.73622116     0.07780
N304        N  0.39693802  0.24382909  0.56112679    -0.26610
N305        N  0.38316170  0.25708730  0.56149253    -0.34470
C306        C  0.37125418  0.25421546  0.54637308     0.01730
C307        C  0.37787924  0.23838529  0.53614067     0.07760
C308        C  0.39420060  0.23219151  0.54576236    -0.05340
H309        H  0.35894641  0.26320671  0.54288551     0.08420
H310        H  0.40357193  0.22032365  0.54173397     0.09620
Cu311      Cu  0.38159068  0.27886659  0.58209135     0.44170
Cu312      Cu  0.41909893  0.24236401  0.58117305     0.41990
Cu313      Cu  0.41903548  0.27903987  0.61866014     0.43880
N314        N  0.38332923  0.29924883  0.60406285    -0.33990
N315        N  0.39697611  0.29934552  0.61741559    -0.28250
C316        C  0.39400627  0.31437324  0.62943203    -0.04350
C317        C  0.37763373  0.32433361  0.62339917     0.07870
C318        C  0.37131577  0.31419652  0.60720932     0.01660
H319        H  0.40321454  0.31768680  0.64162664     0.09310
H320        H  0.35891214  0.31731370  0.59824150     0.08390
N321        N  0.43949259  0.25716277  0.61670871    -0.35440
N322        N  0.43952251  0.24378052  0.60300158    -0.27620
C323        C  0.45479110  0.23202212  0.60559778    -0.02860
C324        C  0.46471548  0.23829381  0.62174798     0.05750
C325        C  0.45475149  0.25427642  0.62839953     0.03840
H326        H  0.45853908  0.22002457  0.59625159     0.08950
H327        H  0.45848250  0.26332113  0.64063440     0.07780
C328        C  0.36883565  0.34194200  0.63224315     0.03810
C329        C  0.37697104  0.35042904  0.64886153    -0.12340
C330        C  0.36882694  0.36706244  0.65731005     0.01310
C331        C  0.35224119  0.37518734  0.64884591    -0.10860
C332        C  0.34379656  0.36700755  0.63224020     0.03800
C333        C  0.35224497  0.35038809  0.62409324    -0.10290
H334        H  0.38968123  0.34406468  0.65523828     0.09400
H335        H  0.34588020  0.38793057  0.65520564     0.06930
H336        H  0.34589223  0.34401768  0.61134669     0.06770
N337        N  0.24592262  0.39544900  0.56127324    -0.26610
N338        N  0.25904599  0.38154285  0.56166498    -0.34470
C339        C  0.25610625  0.36957631  0.54657600     0.01730
C340        C  0.24037713  0.37628959  0.53630647     0.07760
C341        C  0.23431745  0.39274042  0.54589226    -0.05340
H342        H  0.26499986  0.35717170  0.54312302     0.08420
H343        H  0.22254407  0.40219905  0.54183872     0.09620
Cu344      Cu  0.28077719  0.37987575  0.58224045     0.44170
Cu345      Cu  0.24457788  0.41765984  0.58142502     0.41990
Cu346      Cu  0.28088119  0.41708799  0.61917726     0.43880
N347        N  0.30115445  0.38152895  0.60416869    -0.33990
N348        N  0.30119726  0.39509836  0.61763733    -0.28250
C349        C  0.31620501  0.39211215  0.62960734    -0.04350
C350        C  0.32621650  0.37580293  0.62343260     0.07870
C351        C  0.31613275  0.36953918  0.60719900     0.01660
H352        H  0.31944842  0.40126124  0.64188095     0.09310
H353        H  0.31930408  0.35718712  0.59813420     0.08390
N354        N  0.25911813  0.43761726  0.61741756    -0.35440
N355        N  0.24593896  0.43789807  0.60355364    -0.27620
C356        C  0.23428360  0.45323934  0.60623741    -0.02860
C357        C  0.24038062  0.46292039  0.62261833     0.05750
C358        C  0.25617595  0.45275020  0.62932030     0.03840
H359        H  0.22245292  0.45719969  0.59680750     0.08950
H360        H  0.26509418  0.45628456  0.64169025     0.07780
C361        C  0.34861861  0.20945512  0.50027269     0.03810
C362        C  0.35584579  0.21662433  0.48270276    -0.12340
C363        C  0.37034185  0.23080474  0.48270748     0.01310
C364        C  0.37754968  0.23786917  0.50027986    -0.10860
C365        C  0.37027275  0.23085319  0.51784466     0.03800
C366        C  0.35583808  0.21661723  0.51784183    -0.10290
H367        H  0.35027186  0.21112415  0.46910363     0.09400
H368        H  0.38875956  0.24885132  0.50028570     0.06930
H369        H  0.35025388  0.21111735  0.53143914     0.06770
C370        C  0.28976756  0.15059089  0.50040022     0.03810
C371        C  0.28269416  0.14329957  0.51797897    -0.12340
C372        C  0.26849011  0.12883031  0.51799721     0.01310
C373        C  0.26141943  0.12159271  0.50044017    -0.10860
C374        C  0.26841456  0.12885666  0.48286201     0.03800
C375        C  0.28255432  0.14339063  0.48284141    -0.10290
H376        H  0.28823052  0.14886011  0.53156937     0.09400
H377        H  0.25045923  0.11036068  0.50045676     0.06930
H378        H  0.28800291  0.14900310  0.46923543     0.06770
C379        C  0.21134058  0.34707350  0.50038765     0.03810
C380        C  0.21814758  0.35472050  0.48283371    -0.12340
C381        C  0.23238089  0.36917551  0.48284646     0.01310
C382        C  0.23960497  0.37620241  0.50043057    -0.10860
C383        C  0.23284643  0.36866169  0.51799080     0.03800
C384        C  0.21882885  0.35399468  0.51796173    -0.10290
H385        H  0.21248261  0.34933879  0.46922542     0.09400
H386        H  0.25053689  0.38746181  0.50044782     0.06930
H387        H  0.21357495  0.34816760  0.53155337     0.06770
C388        C  0.15230672  0.28811758  0.50029275     0.03810
C389        C  0.14536989  0.28060438  0.51786112    -0.12340
C390        C  0.13056808  0.26672149  0.51788702     0.01310
C391        C  0.12294042  0.26009639  0.50030838    -0.10860
C392        C  0.13003847  0.26727141  0.48272164     0.03800
C393        C  0.14461076  0.28138915  0.48272854    -0.10290
H394        H  0.15127048  0.28576051  0.53145550     0.09400
H395        H  0.11162054  0.24922913  0.50031096     0.06930
H396        H  0.15004105  0.28702867  0.46912697     0.06770
N397        N  0.10421929  0.05961680  0.75546640    -0.26610
N398        N  0.11805487  0.06004964  0.74224803    -0.34470
C399        C  0.12999476  0.04497041  0.74508424     0.01730
C400        C  0.12331703  0.03467605  0.76084250     0.07760
C401        C  0.10694275  0.04422770  0.76704404    -0.05340
H402        H  0.14235392  0.04155043  0.73610990     0.08420
H403        H  0.09753913  0.04014402  0.77888286     0.09620
Cu404      Cu  0.11963928  0.08062927  0.72054031     0.44170
Cu405      Cu  0.08203425  0.07963522  0.75693041     0.41990
Cu406      Cu  0.08210789  0.11703633  0.72014156     0.43880
N407        N  0.11793834  0.10245749  0.70010569    -0.33990
N408        N  0.10425703  0.11576290  0.69990215    -0.28250
C409        C  0.10728770  0.12769896  0.68483471    -0.04350
C410        C  0.12373855  0.12164714  0.67497466     0.07870
C411        C  0.13003434  0.10554319  0.68520040     0.01660
H412        H  0.09806864  0.13984575  0.68142880     0.09310
H413        H  0.14248360  0.09659843  0.68218240     0.08390
N414        N  0.06164511  0.11510640  0.74204314    -0.35440
N415        N  0.06161725  0.10145696  0.75546861    -0.27620
C416        C  0.04634955  0.10410009  0.76724990    -0.02860
C417        C  0.03642567  0.12021488  0.76094141     0.05750
C418        C  0.04638493  0.12679843  0.74491836     0.03840
H419        H  0.04260250  0.09480909  0.77928737     0.08950
H420        H  0.04265794  0.13899565  0.73584660     0.07780
N421        N  0.25580878  0.05984812  0.60361589    -0.26610
N422        N  0.24258047  0.06004697  0.61745144    -0.34470
C423        C  0.24554671  0.04492490  0.62931982     0.01730
C424        C  0.26141771  0.03485506  0.62263154     0.07760
C425        C  0.26753552  0.04456977  0.60628779    -0.05340
H426        H  0.23658716  0.04132289  0.64165021     0.08420
H427        H  0.27940352  0.04066109  0.59685986     0.09620
Cu428      Cu  0.22071368  0.08040091  0.61924433     0.44170
Cu429      Cu  0.25708777  0.08005695  0.58152369     0.41990
Cu430      Cu  0.22057671  0.11744914  0.58220127     0.43880
N431        N  0.20033144  0.10225483  0.61772167    -0.33990
N432        N  0.20030236  0.11575454  0.60420430    -0.28250
C433        C  0.18530868  0.12770592  0.60724436    -0.04350
C434        C  0.17529161  0.12148556  0.62353813     0.07870
C435        C  0.18534873  0.10524540  0.62974417     0.01660
H436        H  0.18209663  0.13999837  0.59813621     0.09310
H437        H  0.18216178  0.09616150  0.64207525     0.08390
N438        N  0.24230955  0.11588774  0.56163158    -0.35440
N439        N  0.25560059  0.10214321  0.56133019    -0.27620
C440        C  0.26723585  0.10489862  0.54597292    -0.02860
C441        C  0.26099271  0.12119794  0.53629866     0.05750
C442        C  0.24514330  0.12778584  0.54648828     0.03840
H443        H  0.27913899  0.09556114  0.54198949     0.08950
H444        H  0.23612092  0.14006850  0.54296385     0.07780
C445        C  0.15773861  0.13029703  0.63235201     0.03810
C446        C  0.14921941  0.12217844  0.64895548    -0.12340
C447        C  0.13263850  0.13040483  0.65738490     0.01310
C448        C  0.12460739  0.14703732  0.64889987    -0.10860
C449        C  0.13284300  0.15542615  0.63228259     0.03800
C450        C  0.14939431  0.14691251  0.62417545    -0.10290
H451        H  0.15550379  0.10940672  0.65531210     0.09400
H452        H  0.11191714  0.15347452  0.65526485     0.06930
H453        H  0.15580068  0.15325261  0.61144246     0.06770
N454        N  0.10373123  0.25302908  0.56102460    -0.26610
N455        N  0.11799918  0.24029734  0.56157995    -0.34470
C456        C  0.13002731  0.24356575  0.54661211     0.01730
C457        C  0.12298826  0.25908392  0.53621140     0.07760
C458        C  0.10627410  0.26468048  0.54561905    -0.05340
H459        H  0.14268275  0.23499123  0.54329593     0.08420
H460        H  0.09653188  0.27617341  0.54142134     0.09620
Cu461      Cu  0.12010246  0.21850352  0.58211181     0.44170
Cu462      Cu  0.08124185  0.25381309  0.58102989     0.41990
Cu463      Cu  0.08304814  0.21813816  0.61911563     0.43880
N464        N  0.11857748  0.19808370  0.60406686    -0.33990
N465        N  0.10502894  0.19804561  0.61753165    -0.28250
C466        C  0.10794230  0.18305674  0.62952934    -0.04350
C467        C  0.12419786  0.17302166  0.62340395     0.07870
C468        C  0.13052098  0.18307213  0.60714745     0.01660
H469        H  0.09875057  0.17984085  0.64177093     0.09310
H470        H  0.14285690  0.17984769  0.59809982     0.08390
N471        N  0.06195639  0.23915383  0.61743566    -0.35440
N472        N  0.06103275  0.25201726  0.60329561    -0.27620
C473        C  0.04530272  0.26312021  0.60598526    -0.02860
C474        C  0.03610809  0.25702830  0.62268453     0.05750
C475        C  0.04696231  0.24179110  0.62956943     0.03840
H476        H  0.04081447  0.27467688  0.59643438     0.08950
H477        H  0.04398829  0.23301065  0.64219095     0.07780
N478        N  0.39751857  0.75389593  0.43979820    -0.26610
N479        N  0.38351059  0.74085475  0.43934722    -0.34470
C480        C  0.37156721  0.74385819  0.45442930     0.01730
C481        C  0.37841322  0.75952958  0.46476877     0.07760
C482        C  0.39490647  0.76550104  0.45522091    -0.05340
H483        H  0.35908859  0.73503928  0.45783423     0.08420
H484        H  0.40444748  0.77722417  0.45931744     0.09620
Cu485      Cu  0.38168778  0.71911412  0.41872937     0.44170
Cu486      Cu  0.41971354  0.75515658  0.41964678     0.41990
Cu487      Cu  0.41878181  0.71901827  0.38171199     0.43880
N488        N  0.38329017  0.69870399  0.39677661    -0.33990
N489        N  0.39682105  0.69868456  0.38328771    -0.28250
C490        C  0.39383958  0.68364987  0.37130716    -0.04350
C491        C  0.37757134  0.67359048  0.37749130     0.07870
C492        C  0.37132283  0.68367254  0.39374565     0.01660
H493        H  0.40296905  0.68042361  0.35902209     0.09310
H494        H  0.35900189  0.68046291  0.40282431     0.08390
N495        N  0.43941464  0.74068550  0.38348804    -0.35440
N496        N  0.43986567  0.75378640  0.39745545    -0.27620
C497        C  0.45528279  0.76536116  0.39479908    -0.02860
C498        C  0.46482421  0.75929403  0.37832458     0.05750
C499        C  0.45449239  0.74360519  0.37153263     0.03840
H500        H  0.45937843  0.77712708  0.40429700     0.08950
H501        H  0.45788575  0.73473070  0.35907662     0.07780
N502        N  0.39750344  0.55993096  0.24556373    -0.26610
N503        N  0.38368282  0.56028329  0.25880209    -0.34470
C504        C  0.37176200  0.54516982  0.25592479     0.01730
C505        C  0.37841195  0.53493839  0.24010913     0.07760
C506        C  0.39477264  0.54456176  0.23392166    -0.05340
H507        H  0.35941609  0.54169196  0.26490090     0.08420
H508        H  0.40416222  0.54053877  0.22205287     0.09620
Cu509      Cu  0.38200187  0.58084878  0.28055836     0.44170
Cu510      Cu  0.41965164  0.58007075  0.24416554     0.41990
Cu511      Cu  0.41908021  0.61781149  0.28060076     0.43880
N512        N  0.38354802  0.60281813  0.30090624    -0.33990
N513        N  0.39706585  0.61631999  0.30093835    -0.28250
C514        C  0.39401098  0.62831773  0.31595254    -0.04350
C515        C  0.37771223  0.62211508  0.32596931     0.07870
C516        C  0.37152565  0.60584536  0.31588729     0.01660
H517        H  0.40310977  0.64062062  0.31920272     0.09310
H518        H  0.35921172  0.59674523  0.31906390     0.08390
N519        N  0.43964691  0.61595980  0.25882140    -0.35440
N520        N  0.43991325  0.60211191  0.24558747    -0.27620
C521        C  0.45527593  0.60474106  0.23393150    -0.02860
C522        C  0.46499649  0.62106667  0.24009482     0.05750
C523        C  0.45481922  0.62779650  0.25591792     0.03840
H524        H  0.45921790  0.59531220  0.22205923     0.08950
H525        H  0.45836662  0.64015330  0.26487108     0.07780
C526        C  0.36886658  0.63090662  0.34356806     0.03810
C527        C  0.37698133  0.64753050  0.35204853    -0.12340
C528        C  0.36880540  0.65597072  0.36866433     0.01310
C529        C  0.35220931  0.64748506  0.37679643    -0.10860
C530        C  0.34378248  0.63086206  0.36861609     0.03800
C531        C  0.35226010  0.62272545  0.35200060    -0.10290
H532        H  0.38970757  0.65392171  0.34569093     0.09400
H533        H  0.34583450  0.65384135  0.38954220     0.06930
H534        H  0.34591031  0.60998019  0.34561398     0.06770
N535        N  0.24590063  0.60241910  0.43963059    -0.26610
N536        N  0.25905196  0.61632488  0.43918873    -0.34470
C537        C  0.25617284  0.62830731  0.45427091     0.01730
C538        C  0.24045859  0.62159695  0.46459672     0.07760
C539        C  0.23433386  0.60514315  0.45504865    -0.05340
H540        H  0.26509414  0.64072108  0.45767483     0.08420
H541        H  0.22253558  0.59570095  0.45914499     0.09620
Cu542      Cu  0.28073864  0.61797630  0.41857947     0.44170
Cu543      Cu  0.24445751  0.58019999  0.41948248     0.41990
Cu544      Cu  0.28077780  0.58072029  0.38169726     0.43880
N545        N  0.30109925  0.61629386  0.39665691    -0.33990
N546        N  0.30114136  0.60271656  0.38319775    -0.28250
C547        C  0.31617289  0.60571398  0.37122731    -0.04350
C548        C  0.32618776  0.62203598  0.37740358     0.07870
C549        C  0.31608923  0.62829519  0.39362967     0.01660
H550        H  0.31943173  0.59656807  0.35895523     0.09310
H551        H  0.31925209  0.64065125  0.40269553     0.08390
N552        N  0.25894149  0.56020888  0.38348145    -0.35440
N553        N  0.24573871  0.55994896  0.39734457    -0.27620
C554        C  0.23402970  0.54462137  0.39465669    -0.02860
C555        C  0.24012101  0.53492179  0.37827624     0.05750
C556        C  0.25596727  0.54507473  0.37158447     0.03840
H557        H  0.22217350  0.54067554  0.40408956     0.08950
H558        H  0.26489687  0.54152719  0.35921797     0.07780
C559        C  0.21131735  0.49904828  0.34875629     0.03810
C560        C  0.21863864  0.48147854  0.35581457    -0.12340
C561        C  0.23276322  0.48146506  0.37036084     0.01310
C562        C  0.23967040  0.49903987  0.37774614    -0.10860
C563        C  0.23253844  0.51661730  0.37064422     0.03800
C564        C  0.21831170  0.51661356  0.35620144    -0.10290
H565        H  0.21325085  0.46788406  0.35011323     0.09400
H566        H  0.25063223  0.49903851  0.38895817     0.06930
H567        H  0.21273146  0.53021088  0.35074189     0.06770
C568        C  0.15224179  0.49895955  0.28999746     0.03810
C569        C  0.14475934  0.51652466  0.28310978    -0.12340
C570        C  0.13015756  0.51653518  0.26905023     0.01310
C571        C  0.12292060  0.49895859  0.26198845    -0.10860
C572        C  0.13038540  0.48137685  0.26873717     0.03800
C573        C  0.14511158  0.48138924  0.28267889    -0.10290
H574        H  0.15030770  0.53012089  0.28865169     0.09400
H575        H  0.11160981  0.49896431  0.25113000     0.06930
H576        H  0.15088390  0.46779524  0.28794109     0.06770
C577        C  0.34880587  0.49912768  0.21131797     0.03810
C578        C  0.35591915  0.48156259  0.21869023    -0.12340
C579        C  0.37041610  0.48155922  0.23284319     0.01310
C580        C  0.37782210  0.49910314  0.23974062    -0.10860
C581        C  0.37073593  0.51665673  0.23260010     0.03800
C582        C  0.35628268  0.51667746  0.21841019    -0.10290
H583        H  0.35039732  0.46792279  0.21323395     0.09400
H584        H  0.38904113  0.49909610  0.25069546     0.06930
H585        H  0.35077278  0.53032674  0.21301081     0.06770
C586        C  0.28976638  0.49921648  0.15202342     0.03810
C587        C  0.28272183  0.51677307  0.14456529    -0.12340
C588        C  0.26862786  0.51676298  0.13001080     0.01310
C589        C  0.26154262  0.49920619  0.12280949    -0.10860
C590        C  0.26839494  0.48165925  0.13020254     0.03800
C591        C  0.28244155  0.48165776  0.14479960    -0.10290
H592        H  0.28808187  0.53041768  0.15017026     0.09400
H593        H  0.25064451  0.49919881  0.11153474     0.06930
H594        H  0.28785065  0.46801601  0.15031858     0.06770
N595        N  0.11842881  0.69863766  0.10489672    -0.26610
N596        N  0.10483599  0.69859993  0.11832279    -0.34470
C597        C  0.10777384  0.68356229  0.13029342     0.01730
C598        C  0.12407122  0.67354300  0.12414653     0.07760
C599        C  0.13037921  0.68364188  0.10794403    -0.05340
H600        H  0.09858995  0.68028824  0.14252699     0.08420
H601        H  0.14271798  0.68046364  0.09888549     0.09620
Cu602      Cu  0.08285137  0.71890161  0.11973690     0.44170
Cu603      Cu  0.12017869  0.71887651  0.08288412     0.41990
Cu604      Cu  0.08198653  0.75451224  0.08132446     0.43880
N605        N  0.06226465  0.74056590  0.11768844    -0.33990
N606        N  0.06183288  0.75346841  0.10355227    -0.28250
C607        C  0.04643496  0.76507730  0.10606757    -0.04350
C608        C  0.03688898  0.75924885  0.12263011     0.07870
C609        C  0.04719750  0.74365630  0.12961262     0.01660
H610        H  0.04235086  0.77669933  0.09641443     0.09310
H611        H  0.04378494  0.73494847  0.14217438     0.08390
N612        N  0.10418769  0.75301004  0.06117894    -0.35440
N613        N  0.11833094  0.74016335  0.06190123    -0.27620
C614        C  0.13029981  0.74300818  0.04680007    -0.02860
C615        C  0.12328260  0.75835140  0.03613810     0.05750
C616        C  0.10671047  0.76431046  0.04554077     0.03840
H617        H  0.14290262  0.73430729  0.04361819     0.08950
H618        H  0.09709451  0.77587091  0.04123608     0.07780
N619        N  0.25563197  0.60273087  0.06137397    -0.26610
N620        N  0.24246506  0.61659820  0.06179150    -0.34470
C621        C  0.24537231  0.62854850  0.04669096     0.01730
C622        C  0.26112537  0.62186557  0.03639587     0.07760
C623        C  0.26723396  0.60545344  0.04597809    -0.05340
H624        H  0.23644696  0.64092552  0.04325040     0.08420
H625        H  0.27903223  0.59602072  0.04190650     0.09620
Cu626      Cu  0.22072953  0.61823429  0.08243627     0.44170
Cu627      Cu  0.25703395  0.58050347  0.08146723     0.41990
Cu628      Cu  0.22076883  0.58097719  0.11926751     0.43880
N629        N  0.20041184  0.61649848  0.10447749    -0.33990
N630        N  0.20043405  0.60290938  0.11790850    -0.28250
C631        C  0.18545866  0.60582901  0.12996400    -0.04350
C632        C  0.17539430  0.62211615  0.12388920     0.07870
C633        C  0.18541470  0.62844035  0.10762150     0.01660
H634        H  0.18226743  0.59665166  0.14222446     0.09310
H635        H  0.18218914  0.64079645  0.09860371     0.08390
N636        N  0.24246549  0.56043260  0.11735805    -0.35440
N637        N  0.25564943  0.56016890  0.10347983    -0.27620
C638        C  0.26725670  0.54478087  0.10607690    -0.02860
C639        C  0.26110402  0.53505663  0.12241066     0.05750
C640        C  0.24534700  0.54525269  0.12918116     0.03840
H641        H  0.27909419  0.54082711  0.09662924     0.08950
H642        H  0.23641886  0.54171352  0.14155229     0.07780
C643        C  0.13278161  0.63080066  0.15791124     0.03810
C644        C  0.12466920  0.64743906  0.14950206    -0.12340
C645        C  0.13281940  0.65592028  0.13290743     0.01310
C646        C  0.14938632  0.64747661  0.12471198    -0.10860
C647        C  0.15782061  0.63085058  0.13279754     0.03800
C648        C  0.14936936  0.62264978  0.14940973    -0.10290
H649        H  0.11196756  0.65382401  0.15589512     0.09400
H650        H  0.15574078  0.65386898  0.11197929     0.06930
H651        H  0.15571598  0.60989093  0.15573713     0.06770
N652        N  0.06143359  0.60237215  0.25574884    -0.26610
N653        N  0.06188621  0.61624908  0.24256666    -0.34470
C654        C  0.04682582  0.62821442  0.24545484     0.01730
C655        C  0.03651327  0.62154048  0.26121786     0.07760
C656        C  0.04604553  0.60510847  0.26734799    -0.05340
H657        H  0.04343157  0.64060583  0.23651587     0.08420
H658        H  0.04195287  0.59568113  0.27916516     0.09620
Cu659      Cu  0.08254268  0.61790732  0.22085802     0.44170
Cu660      Cu  0.08152939  0.58015758  0.25717317     0.41990
Cu661      Cu  0.11947689  0.58079575  0.22101009     0.43880
N662        N  0.10457651  0.61625926  0.20055517    -0.33990
N663        N  0.11805038  0.60273831  0.20059747    -0.28250
C664        C  0.13007927  0.60573401  0.18559935    -0.04350
C665        C  0.12393574  0.62199705  0.17551090     0.07870
C666        C  0.10766130  0.62822377  0.18553594     0.01660
H667        H  0.14237076  0.59662913  0.18240935     0.09310
H668        H  0.09859418  0.64052812  0.18229583     0.08390
N669        N  0.11754650  0.56023217  0.24278405    -0.35440
N670        N  0.10360322  0.55989706  0.25589859    -0.27620
C671        C  0.10617845  0.54450524  0.26753752    -0.02860
C672        C  0.12257349  0.53485049  0.26150039     0.05750
C673        C  0.12939374  0.54509873  0.24575952     0.03840
H674        H  0.09667272  0.54049800  0.27932012     0.08950
H675        H  0.14180834  0.54160888  0.23688957     0.07780
N676        N  0.43959132  0.25387623  0.10297741    -0.26610
N677        N  0.43940151  0.24060258  0.11677080    -0.34470
C678        C  0.45458684  0.24352616  0.12855757     0.01730
C679        C  0.46468540  0.25941448  0.12186750     0.07760
C680        C  0.45491323  0.26559164  0.10560107    -0.05340
H681        H  0.45818907  0.23455294  0.14086640     0.08420
H682        H  0.45879363  0.27750508  0.09620644     0.09620
Cu683      Cu  0.41888280  0.21878311  0.11866956     0.44170
Cu684      Cu  0.41926040  0.25524127  0.08104220     0.41990
Cu685      Cu  0.38155962  0.21885873  0.08196573     0.43880
N686        N  0.39684626  0.19845994  0.11733687    -0.33990
N687        N  0.38323906  0.19849833  0.10394455    -0.28250
C688        C  0.37122498  0.18352642  0.10707745    -0.04350
C689        C  0.37751023  0.17344756  0.12329808     0.07870
C690        C  0.39385837  0.18345828  0.12936041     0.01660
H691        H  0.35884287  0.18035612  0.09808513     0.09310
H692        H  0.40303649  0.18020665  0.14158464     0.08390
N693        N  0.38319203  0.24065812  0.06140301    -0.35440
N694        N  0.39704667  0.25386336  0.06101897    -0.27620
C695        C  0.39432060  0.26552756  0.04568714    -0.02860
C696        C  0.37791816  0.25941662  0.03611209     0.05750
C697        C  0.37124528  0.24359579  0.04633410     0.03840
H698        H  0.40375166  0.27735931  0.04164797     0.08950
H699        H  0.35887859  0.23464758  0.04286516     0.07780
N700        N  0.30102237  0.11616201  0.10408525    -0.26610
N701        N  0.30099083  0.10265181  0.11759726    -0.34470
C702        C  0.31598035  0.10567716  0.12959548     0.01730
C703        C  0.32605485  0.12194859  0.12339180     0.07760
C704        C  0.31602769  0.12815020  0.10711488    -0.05340
H705        H  0.31916969  0.09658331  0.14190788     0.08420
H706        H  0.31925541  0.14045708  0.09801562     0.09620
Cu707      Cu  0.28059950  0.08068749  0.11914646     0.44170
Cu708      Cu  0.28070483  0.11776888  0.08210076     0.41990
Cu709      Cu  0.24412120  0.08030301  0.08157958     0.43880
N710        N  0.25875614  0.06018832  0.11736578    -0.33990
N711        N  0.24548405  0.06000878  0.10358996    -0.28250
C712        C  0.23378236  0.04467468  0.10623169    -0.04350
C713        C  0.23996558  0.03487273  0.12248135     0.07870
C714        C  0.25584118  0.04497876  0.12916108     0.01660
H715        H  0.22187845  0.04079242  0.09684663     0.09310
H716        H  0.26482092  0.04135613  0.14145059     0.08390
N717        N  0.24557723  0.10239026  0.06137071    -0.35440
N718        N  0.25889819  0.11613767  0.06159379    -0.27620
C719        C  0.25603616  0.12800761  0.04643841    -0.02860
C720        C  0.24013525  0.12140930  0.03632903     0.05750
C721        C  0.23389524  0.10512335  0.04606296     0.03840
H722        H  0.26506945  0.14028792  0.04285281     0.08950
H723        H  0.22196627  0.09577266  0.04214677     0.07780
C724        C  0.36868655  0.13080720  0.15726257     0.03810
C725        C  0.37684017  0.14742309  0.14878671    -0.12340
C726        C  0.36870497  0.15585522  0.13216266     0.01310
C727        C  0.35210633  0.14737612  0.12403158    -0.10860
C728        C  0.34364425  0.13076971  0.13219994     0.03800
C729        C  0.35208657  0.12263765  0.14881484    -0.10290
H730        H  0.38955777  0.15381844  0.15515135     0.09400
H731        H  0.34575645  0.15371741  0.11128496     0.06930
H732        H  0.34571774  0.10989735  0.15518630     0.06770
N733        N  0.39677350  0.11618467  0.19990678    -0.26610
N734        N  0.38319395  0.10274212  0.19997677    -0.34470
C735        C  0.37120360  0.10578805  0.18498981     0.01730
C736        C  0.37747606  0.12200503  0.17487162     0.07760
C737        C  0.39379146  0.12815333  0.18487196    -0.05340
H738        H  0.35884645  0.09674200  0.18183493     0.08420
H739        H  0.40295181  0.14040293  0.18159419     0.09620
Cu740      Cu  0.38153170  0.08081571  0.22039181     0.44170
Cu741      Cu  0.41878670  0.11766955  0.22020910     0.41990
Cu742      Cu  0.41943535  0.07985881  0.25647680     0.43880
N743        N  0.38323972  0.06023231  0.24214823    -0.33990
N744        N  0.39720270  0.05978830  0.25521280    -0.28250
C745        C  0.39453637  0.04440157  0.26683064    -0.04350
C746        C  0.37805138  0.03486753  0.26084500     0.07870
C747        C  0.37126868  0.04517090  0.24514691     0.01660
H748        H  0.40404663  0.04030989  0.27855892     0.09310
H749        H  0.35882283  0.04175045  0.23630367     0.08390
N750        N  0.43968831  0.10192249  0.25508219    -0.35440
N751        N  0.43938069  0.11581983  0.24191999    -0.27620
C752        C  0.45452845  0.12768515  0.24484409    -0.02860
C753        C  0.46473684  0.12091521  0.26060463     0.05750
C754        C  0.45505840  0.10454186  0.26670724     0.03840
H755        H  0.45803914  0.14008293  0.23594367     0.08950
H756        H  0.45902884  0.09508228  0.27852738     0.07780
C757        C  0.21150291  0.49878531  0.65198994     0.03810
C758        C  0.21867263  0.48121543  0.64477045    -0.12340
C759        C  0.23281661  0.48121307  0.63023135     0.01310
C760        C  0.23978723  0.49878475  0.62292423    -0.10860
C761        C  0.23273312  0.51634620  0.63015888     0.03800
C762        C  0.21859698  0.51634596  0.64468966    -0.10290
H763        H  0.21322781  0.46762129  0.65040999     0.09400
H764        H  0.25073393  0.49879325  0.61167997     0.06930
H765        H  0.21310385  0.52994178  0.65027006     0.06770
C766        C  0.15283899  0.49887134  0.71107923     0.03810
C767        C  0.14568500  0.51643843  0.71830109    -0.12340
C768        C  0.13126589  0.51644604  0.73255459     0.01310
C769        C  0.12398086  0.49888161  0.73957589    -0.10860
C770        C  0.13112480  0.48129858  0.73247116     0.03800
C771        C  0.14557688  0.48130089  0.71823403    -0.10290
H772        H  0.15127661  0.53003185  0.71280197     0.09400
H773        H  0.11280314  0.49889628  0.75058931     0.06930
H774        H  0.15110755  0.46770507  0.71269518     0.06770
N775        N  0.39770339  0.56003828  0.75507500    -0.26610
N776        N  0.38362082  0.56046009  0.74213789    -0.34470
C777        C  0.37165925  0.54542461  0.74527860     0.01730
C778        C  0.37854923  0.53514586  0.76094353     0.07760
C779        C  0.39511109  0.54467527  0.76675926    -0.05340
H780        H  0.35913554  0.54200094  0.73654723     0.08420
H781        H  0.40471880  0.54059426  0.77841093     0.09620
Cu782      Cu  0.38167765  0.58097278  0.72034105     0.44170
Cu783      Cu  0.41994980  0.58017222  0.75603286     0.41990
Cu784      Cu  0.41855927  0.61821103  0.72003266     0.43880
N785        N  0.38308035  0.60287752  0.69989406    -0.33990
N786        N  0.39652877  0.61644986  0.69981624    -0.28250
C787        C  0.39344558  0.62837639  0.68478370    -0.04350
C788        C  0.37719543  0.62207257  0.67478406     0.07870
C789        C  0.37106307  0.60580265  0.68490010     0.01660
H790        H  0.40250199  0.64070522  0.68151854     0.09310
H791        H  0.35879056  0.59664458  0.68173300     0.08390
N792        N  0.43939433  0.61648149  0.74147819    -0.35440
N793        N  0.44003714  0.60243084  0.75446382    -0.27620
C794        C  0.45555095  0.60508959  0.76587705    -0.02860
C795        C  0.46495193  0.62165910  0.75985266     0.05750
C796        C  0.45443306  0.62851300  0.74433828     0.03840
H797        H  0.45978189  0.59555616  0.77754612     0.08950
H798        H  0.45767036  0.64105596  0.73553898     0.07780
N799        N  0.39782283  0.75389301  0.56142175    -0.26610
N800        N  0.38367705  0.74099559  0.56177868    -0.34470
C801        C  0.37176967  0.74424391  0.54674542     0.01730
C802        C  0.37875032  0.75994044  0.53653988     0.07760
C803        C  0.39531889  0.76565719  0.54610691    -0.05340
H804        H  0.35921739  0.73556194  0.54326839     0.08420
H805        H  0.40499737  0.77728999  0.54207745     0.09620
Cu806      Cu  0.38155265  0.71909985  0.58220613     0.44170
Cu807      Cu  0.42005328  0.75469900  0.58156642     0.41990
Cu808      Cu  0.41833546  0.71877073  0.61951685     0.43880
N809        N  0.38290371  0.69863423  0.60412099    -0.33990
N810        N  0.39632754  0.69859586  0.61769457    -0.28250
C811        C  0.39327414  0.68356962  0.62962978    -0.04350
C812        C  0.37706434  0.67351484  0.62334466     0.07870
C813        C  0.37091561  0.68359539  0.60706557     0.01660
H814        H  0.40233384  0.68035062  0.64194881     0.09310
H815        H  0.35866326  0.68036919  0.59791433     0.08390
N816        N  0.43930645  0.74004245  0.61789455    -0.35440
N817        N  0.44010081  0.75301227  0.60383928    -0.27620
C818        C  0.45570202  0.76430988  0.60653115    -0.02860
C819        C  0.46498818  0.75822158  0.62312777     0.05750
C820        C  0.45431453  0.74279216  0.62996880     0.03840
H821        H  0.46006424  0.77595614  0.59701235     0.08950
H822        H  0.45742228  0.73397276  0.64252172     0.07780
C823        C  0.34331992  0.63077497  0.63213934     0.03810
C824        C  0.35173161  0.64740752  0.62398486    -0.12340
C825        C  0.36830093  0.65589056  0.63212585     0.01310
C826        C  0.37646329  0.64744859  0.64872126    -0.10860
C827        C  0.36835858  0.63082059  0.65718522     0.03800
C828        C  0.35177897  0.62262564  0.64874351    -0.10290
H829        H  0.34536505  0.65378116  0.61126050     0.09400
H830        H  0.38917554  0.65384497  0.65507944     0.06930
H831        H  0.34544401  0.60986891  0.65511891     0.06770
N832        N  0.30073530  0.60265758  0.61755345    -0.26610
N833        N  0.30072674  0.61617241  0.60405119    -0.34470
C834        C  0.31571526  0.62817455  0.60707268     0.01730
C835        C  0.32575592  0.62196023  0.62333472     0.07760
C836        C  0.31572202  0.60567969  0.62953793    -0.05340
H837        H  0.31891955  0.64049176  0.59797940     0.08420
H838        H  0.31893106  0.59657367  0.64183585     0.09620
Cu839      Cu  0.28038782  0.61773274  0.58210875     0.44170
Cu840      Cu  0.28045001  0.58068611  0.61912965     0.41990
Cu841      Cu  0.24403118  0.58004283  0.58153938     0.43880
N842        N  0.25859975  0.61599346  0.56161556    -0.33990
N843        N  0.24536605  0.60216271  0.56134668    -0.28250
C844        C  0.23370471  0.60484375  0.54601042    -0.04350
C845        C  0.23987100  0.62118442  0.53631774     0.07870
C846        C  0.25570001  0.62786747  0.54647687     0.01660
H847        H  0.22184581  0.59542376  0.54204768     0.09310
H848        H  0.26467329  0.64020207  0.54292610     0.08390
N849        N  0.24554874  0.55976927  0.60357042    -0.35440
N850        N  0.25878914  0.56008421  0.61737198    -0.27620
C851        C  0.25598775  0.54489593  0.62921265    -0.02860
C852        C  0.24022489  0.53464419  0.62252336     0.05750
C853        C  0.23398067  0.54434287  0.60623285     0.03840
H854        H  0.26497115  0.54139242  0.64153418     0.08950
H855        H  0.22211059  0.54034408  0.59685344     0.07780
C856        C  0.50050542  0.20992014  0.65181967     0.03810
C857        C  0.48301932  0.21626343  0.64352191    -0.12340
C858        C  0.48299714  0.23074384  0.62932165     0.01310
C859        C  0.50048244  0.23840567  0.62265745    -0.10860
C860        C  0.51796954  0.23204404  0.63051137     0.03800
C861        C  0.51796616  0.21820099  0.64532700    -0.10290
H862        H  0.46939181  0.20996286  0.64800580     0.09400
H863        H  0.50047766  0.24936644  0.61142634     0.06930
H864        H  0.53159957  0.21389796  0.65170094     0.06770
C865        C  0.50061186  0.15033719  0.71145253     0.03810
C866        C  0.48313371  0.14201186  0.71783398    -0.12340
C867        C  0.48312204  0.12780719  0.73229916     0.01310
C868        C  0.50060001  0.12114805  0.73990847    -0.10860
C869        C  0.51808548  0.12901806  0.73350465     0.03800
C870        C  0.51808149  0.14385093  0.71967393    -0.10290
H871        H  0.46950084  0.14647336  0.71157099     0.09400
H872        H  0.50059058  0.10990961  0.75086226     0.06930
H873        H  0.53171499  0.15024243  0.71533732     0.06770
N874        N  0.56133137  0.39595983  0.75514161    -0.26610
N875        N  0.56173845  0.38202838  0.74199935    -0.34470
C876        C  0.54662110  0.37011860  0.74488919     0.01730
C877        C  0.53631637  0.37690178  0.76059816     0.07760
C878        C  0.54591015  0.39332300  0.76671293    -0.05340
H879        H  0.54319062  0.35768996  0.73599002     0.08420
H880        H  0.54185344  0.40279622  0.77851094     0.09620
Cu881      Cu  0.58236661  0.38018989  0.72032215     0.44170
Cu882      Cu  0.58152665  0.41808427  0.75660939     0.41990
Cu883      Cu  0.61939043  0.41718312  0.72047601     0.43880
N884        N  0.60436214  0.38176707  0.70001765    -0.33990
N885        N  0.61786467  0.39528113  0.70008253    -0.28250
C886        C  0.62988771  0.39230377  0.68509694    -0.04350
C887        C  0.62371100  0.37605286  0.67498497     0.07870
C888        C  0.60742104  0.36980935  0.68498083     0.01660
H889        H  0.64219740  0.40141836  0.68194549     0.09310
H890        H  0.59833166  0.35750553  0.68170911     0.08390
N891        N  0.61767549  0.43773437  0.74221756    -0.35440
N892        N  0.60375377  0.43817470  0.75534565    -0.27620
C893        C  0.60647164  0.45356127  0.76697160    -0.02860
C894        C  0.62293771  0.46308676  0.76089543     0.05750
C895        C  0.62965516  0.45278706  0.74515722     0.03840
H896        H  0.59700771  0.45766272  0.77875385     0.08950
H897        H  0.64207339  0.45619400  0.73625433     0.07780
N898        N  0.75539326  0.39586214  0.56136904    -0.26610
N899        N  0.74218955  0.38200976  0.56178580    -0.34470
C900        C  0.74498246  0.37007571  0.54665958     0.01730
C901        C  0.76069742  0.37676941  0.53633877     0.07760
C902        C  0.76692197  0.39315304  0.54592717    -0.05340
H903        H  0.73600949  0.35770591  0.54323131     0.08420
H904        H  0.77875161  0.40256106  0.54184272     0.09620
Cu905      Cu  0.72056798  0.38036173  0.58240857     0.44170
Cu906      Cu  0.75691359  0.41799969  0.58154323     0.41990
Cu907      Cu  0.72059438  0.41754497  0.61933258     0.43880
N908        N  0.70027185  0.38201303  0.60434068    -0.33990
N909        N  0.70024537  0.39556022  0.61782699    -0.28250
C910        C  0.68523092  0.39253545  0.62980519    -0.04350
C911        C  0.67522023  0.37622636  0.62359489     0.07870
C912        C  0.68529475  0.37000294  0.60734944     0.01660
H913        H  0.68198463  0.40165225  0.64210216     0.09310
H914        H  0.68212663  0.35767075  0.59825334     0.08390
N915        N  0.74240900  0.43804766  0.61746931    -0.35440
N916        N  0.75561750  0.43826658  0.60361263    -0.27620
C917        C  0.76730525  0.45361585  0.60622725    -0.02860
C918        C  0.76117933  0.46337924  0.62254491     0.05750
C919        C  0.74535281  0.45323891  0.62929167     0.03840
H920        H  0.77915941  0.45753438  0.59678045     0.08950
H921        H  0.73641764  0.45683077  0.64164146     0.07780
C922        C  0.63269027  0.34222587  0.63231603     0.03810
C923        C  0.62449183  0.35065683  0.64891992    -0.12340
C924        C  0.63256892  0.36729382  0.65739284     0.01310
C925        C  0.64915305  0.37550776  0.64896711    -0.10860
C926        C  0.65764975  0.36737543  0.63236574     0.03800
C927        C  0.64926811  0.35073111  0.62418721    -0.10290
H928        H  0.61177821  0.34424781  0.65527918     0.09400
H929        H  0.65546865  0.38827290  0.65534722     0.06930
H930        H  0.65566156  0.34436837  0.61145363     0.06770
N931        N  0.60472204  0.29949922  0.61778596    -0.26610
N932        N  0.61820532  0.29947486  0.60425085    -0.34470
C933        C  0.63017269  0.31451681  0.60723964     0.01730
C934        C  0.62395660  0.32459465  0.62351086     0.07760
C935        C  0.60772256  0.31453125  0.62974739    -0.05340
H936        H  0.64246004  0.31774377  0.59812083     0.08420
H937        H  0.59861389  0.31775230  0.64204842     0.09620
Cu938      Cu  0.61969611  0.27904197  0.58231344     0.44170
Cu939      Cu  0.58272977  0.27926944  0.61948451     0.41990
Cu940      Cu  0.58140093  0.24326403  0.58151349     0.43880
N941        N  0.61774646  0.25720625  0.56180969    -0.33990
N942        N  0.60366536  0.24424199  0.56139997    -0.28250
C943        C  0.60625101  0.23253731  0.54604184    -0.04350
C944        C  0.62280380  0.23836628  0.53650024     0.07870
C945        C  0.62969915  0.25406172  0.54676741     0.01660
H946        H  0.59664040  0.22086328  0.54196878     0.09310
H947        H  0.64221885  0.26281004  0.54333135     0.08390
N948        N  0.56123519  0.24486100  0.60369849    -0.35440
N949        N  0.56186343  0.25788161  0.61773149    -0.27620
C950        C  0.54678204  0.25508705  0.62971833    -0.02860
C951        C  0.53624277  0.23957533  0.62284982     0.05750
C952        C  0.54568222  0.23347539  0.60632665     0.03840
H953        H  0.54354157  0.26391993  0.64224432     0.08950
H954        H  0.54145366  0.22177348  0.59680780     0.07780
C955        C  0.00098545  0.78838607  0.15188622     0.03810
C956        C  0.01853984  0.78088701  0.14482148    -0.12340
C957        C  0.01859104  0.76684554  0.13016869     0.01310
C958        C  0.00109375  0.75998289  0.12269230    -0.10860
C959        C  0.98354643  0.76709799  0.12979637     0.03800
C960        C  0.98348656  0.78135114  0.14423637    -0.10290
H961        H  0.03215999  0.78589157  0.15074249     0.09400
H962        H  0.00113083  0.74902323  0.11144685     0.06930
H963        H  0.96982162  0.78706757  0.14934657     0.06770
C964        C  0.00074208  0.84779849  0.21134807     0.03810
C965        C  0.98320047  0.85537248  0.21835133    -0.12340
C966        C  0.98318182  0.86974318  0.23267719     0.01310
C967        C  0.00068691  0.87685257  0.23989264    -0.10860
C968        C  0.01821731  0.86948141  0.23302250     0.03800
C969        C  0.01825098  0.85489900  0.21891621    -0.10290
H970        H  0.96956702  0.85024738  0.21256602     0.09400
H971        H  0.00066626  0.88805975  0.25089171     0.06930
H972        H  0.03190483  0.84905903  0.21391657     0.06770
C973        C  0.79003903  0.99916666  0.15227730     0.03810
C974        C  0.78258878  0.01671413  0.14532626    -0.12340
C975        C  0.76853612  0.01668525  0.13072771     0.01310
C976        C  0.76172461  0.99911008  0.12328066    -0.10860
C977        C  0.76895278  0.98156715  0.13033837     0.03800
C978        C  0.78320273  0.98159509  0.14473295    -0.10290
H979        H  0.78787334  0.03032096  0.15109649     0.09400
H980        H  0.75076764  0.99908415  0.11206323     0.06930
H981        H  0.78885951  0.96800873  0.15014386     0.06770
C982        C  0.84879026  0.99900462  0.21121060     0.03810
C983        C  0.85630171  0.98143882  0.21805256    -0.12340
C984        C  0.87066981  0.98143542  0.23233937     0.01310
C985        C  0.87772754  0.99899789  0.23958377    -0.10860
C986        C  0.87029578  0.01655642  0.23277759     0.03800
C987        C  0.85573453  0.01655947  0.21869666    -0.10290
H988        H  0.85089652  0.96784426  0.21236598     0.09400
H989        H  0.88893316  0.99900008  0.25055195     0.06930
H990        H  0.84999130  0.03015796  0.21340926     0.06770
N991        N  0.74555054  0.93807704  0.39743438    -0.26610
N992        N  0.75877477  0.93786832  0.38359060    -0.34470
C993        C  0.75579270  0.95300373  0.37172713     0.01730
C994        C  0.73992119  0.96309020  0.37842378     0.07760
C995        C  0.73382129  0.95336139  0.39476974    -0.05340
H996        H  0.76473837  0.95660411  0.35938645     0.08420
H997        H  0.72195960  0.95726670  0.40420720     0.09620
Cu998      Cu  0.78066578  0.91744048  0.38179466     0.44170
Cu999      Cu  0.74427784  0.91787555  0.41955453     0.41990
Cu1000     Cu  0.78077874  0.88039722  0.41880548     0.43880
N1001       N  0.80107650  0.89551259  0.38331150    -0.33990
N1002       N  0.80108491  0.88200838  0.39682693    -0.28250
C1003       C  0.81607863  0.87003310  0.39381236    -0.04350
C1004       C  0.82613241  0.87623031  0.37753544     0.07870
C1005       C  0.81608247  0.89249158  0.37131561     0.01660
H1006       H  0.81928098  0.85773997  0.40292495     0.09310
H1007       H  0.81930000  0.90157884  0.35899574     0.08390
N1008       N  0.75910476  0.88203083  0.43942723    -0.35440
N1009       N  0.74583385  0.89579613  0.43977421    -0.27620
C1010       C  0.73426008  0.89305752  0.45518345    -0.02860
C1011       C  0.74052859  0.87675357  0.46484101     0.05750
C1012       C  0.75631633  0.87013790  0.45458232     0.03840
H1013       H  0.72236936  0.90239627  0.45920157     0.08950
H1014       H  0.76532446  0.85783149  0.45805985     0.07780
N1015       N  0.93981217  0.74453091  0.39743200    -0.26610
N1016       N  0.93939863  0.75767501  0.38352127    -0.34470
C1017       C  0.95445773  0.75474721  0.37154321     0.01730
C1018       C  0.96472331  0.73900125  0.37825354     0.07760
C1019       C  0.95517256  0.73292229  0.39471611    -0.05340
H1020       H  0.95788659  0.76365236  0.35912513     0.08420
H1021       H  0.95922967  0.72113100  0.40417347     0.09620
Cu1022     Cu  0.91880247  0.77938564  0.38184650     0.44170
Cu1023     Cu  0.91969871  0.74314281  0.41963538     0.41990
Cu1024     Cu  0.88180814  0.77930977  0.41897591     0.43880
N1025       N  0.89683207  0.79971146  0.38344458    -0.33990
N1026       N  0.88333342  0.79970202  0.39696966    -0.28250
C1027       C  0.87135260  0.81470264  0.39393165    -0.04350
C1028       C  0.87755423  0.82475727  0.37763810     0.07870
C1029       C  0.89381231  0.81470697  0.37144049     0.01660
H1030       H  0.85905253  0.81791730  0.40303214     0.09310
H1031       H  0.90290689  0.81791634  0.35912377     0.08390
N1032       N  0.88366939  0.75749941  0.43954393    -0.35440
N1033       N  0.89759132  0.74438969  0.43985360    -0.27620
C1034       C  0.89498406  0.73271012  0.45521384    -0.02860
C1035       C  0.87859126  0.73871193  0.46488909     0.05750
C1036       C  0.87180080  0.75447738  0.45468325     0.03840
H1037       H  0.90447342  0.72092901  0.45918861     0.08950
H1038       H  0.85939231  0.76332729  0.45820556     0.07780
C1039       C  0.86879730  0.86739698  0.34368495     0.03810
C1040       C  0.85219477  0.87554476  0.35212897    -0.12340
C1041       C  0.84372497  0.86741085  0.36874716     0.01310
C1042       C  0.85216058  0.85081146  0.37692690    -0.10860
C1043       C  0.86876401  0.84235005  0.36879402     0.03800
C1044       C  0.87692647  0.85079663  0.35216581    -0.10290
H1045       H  0.84584509  0.88827223  0.34575125     0.09400
H1046       H  0.84578589  0.84445354  0.38967208     0.06930
H1047       H  0.88965370  0.84443083  0.34580157     0.06770
N1048       N  0.89696299  0.88206463  0.30104818    -0.26610
N1049       N  0.88340753  0.89550261  0.30098954    -0.34470
C1050       C  0.87138738  0.89243644  0.31597248     0.01730
C1051       C  0.87761855  0.87621244  0.32607641     0.07760
C1052       C  0.89393749  0.87007953  0.31607031    -0.05340
H1053       H  0.85904144  0.90147496  0.31913562     0.08420
H1054       H  0.90307211  0.85783105  0.31933571     0.09620
Cu1055     Cu  0.88181687  0.91743911  0.28058151     0.44170
Cu1056     Cu  0.91900210  0.88060489  0.28074628     0.41990
Cu1057     Cu  0.91952694  0.91818172  0.24423282     0.43880
N1058       N  0.88350581  0.93792095  0.25871630    -0.33990
N1059       N  0.89735079  0.93823844  0.24550098    -0.28250
C1060       C  0.89464230  0.95353186  0.23378006    -0.04350
C1061       C  0.87826269  0.96314879  0.23987524     0.07870
C1062       C  0.87159032  0.95299585  0.25573875     0.01660
H1063       H  0.90407606  0.95752341  0.22193399     0.09310
H1064       H  0.85924127  0.95651583  0.26468827     0.08390
N1065       N  0.93981539  0.89622705  0.24570857    -0.35440
N1066       N  0.93957821  0.88243572  0.25898339    -0.27620
C1067       C  0.95476007  0.87063456  0.25610035    -0.02860
C1068       C  0.96490341  0.87732702  0.24023993     0.05750
C1069       C  0.95516124  0.89359498  0.23403957     0.03840
H1070       H  0.95832698  0.85832250  0.26508107     0.08950
H1071       H  0.95907525  0.90298225  0.22213032     0.07780
N1072       N  0.20022601  0.11590599  0.39677281    -0.26610
N1073       N  0.20025718  0.10241806  0.38322762    -0.34470
C1074       C  0.18527471  0.10541687  0.37123895     0.01730
C1075       C  0.17521108  0.12165315  0.37749056     0.07760
C1076       C  0.18522626  0.12786221  0.39378171    -0.05340
H1077       H  0.18209377  0.09633578  0.35889840     0.08420
H1078       H  0.18200158  0.14014945  0.40291457     0.09620
Cu1079     Cu  0.22062790  0.08054675  0.38161547     0.44170
Cu1080     Cu  0.22052647  0.11752116  0.41872430     0.41990
Cu1081     Cu  0.25686181  0.07987661  0.41941088     0.43880
N1082       N  0.24237542  0.06005989  0.38332886    -0.33990
N1083       N  0.25551664  0.05970586  0.39722471    -0.28250
C1084       C  0.26713442  0.04434330  0.39451729    -0.04350
C1085       C  0.26104984  0.03474329  0.37808234     0.07870
C1086       C  0.24530694  0.04497350  0.37137375     0.01660
H1087       H  0.27892752  0.04031319  0.40396479     0.09310
H1088       H  0.23639858  0.04149861  0.35897993     0.08390
N1089       N  0.25545215  0.10204271  0.43959501    -0.35440
N1090       N  0.24224688  0.11587104  0.43925786    -0.27620
C1091       C  0.24512723  0.12781750  0.45436375    -0.02860
C1092       C  0.26091115  0.12117828  0.46458035     0.05750
C1093       C  0.26707233  0.10479391  0.45495479     0.03840
H1094       H  0.23617188  0.14016895  0.45784849     0.08950
H1095       H  0.27891616  0.09540651  0.45896766     0.07780
N1096       N  0.10333298  0.25357215  0.43954475    -0.26610
N1097       N  0.11745495  0.24067826  0.43915711    -0.34470
C1098       C  0.12939553  0.24393904  0.45417186     0.01730
C1099       C  0.12246400  0.25963977  0.46440442     0.07760
C1100       C  0.10589017  0.26534887  0.45486341    -0.05340
H1101       H  0.14193337  0.23525729  0.45762330     0.08420
H1102       H  0.09623857  0.27697869  0.45892026     0.09620
Cu1103     Cu  0.11950008  0.21875516  0.41872660     0.44170
Cu1104     Cu  0.08104862  0.25433287  0.41943955     0.41990
Cu1105     Cu  0.08267943  0.21836713  0.38145366     0.43880
N1106       N  0.11811250  0.19827079  0.39680397    -0.33990
N1107       N  0.10467764  0.19820677  0.38324070    -0.28250
C1108       C  0.10772185  0.18318167  0.37128803    -0.04350
C1109       C  0.12393601  0.17315673  0.37755127     0.07870
C1110       C  0.13009571  0.18325296  0.39383632     0.01660
H1111       H  0.09865498  0.17994343  0.35897013     0.09310
H1112       H  0.14235635  0.18005432  0.40297296     0.08390
N1113       N  0.06175575  0.23966189  0.38308418    -0.35440
N1114       N  0.06098713  0.25263322  0.39715574    -0.27620
C1115       C  0.04542877  0.26395402  0.39445176    -0.02860
C1116       C  0.03614921  0.25789368  0.37782272     0.05750
C1117       C  0.04677623  0.24244034  0.37098658     0.03840
H1118       H  0.04109384  0.27560601  0.40397963     0.08950
H1119       H  0.04365497  0.23362482  0.35841842     0.07780
C1120       C  0.15765427  0.13045267  0.36869958     0.03810
C1121       C  0.14925504  0.14707667  0.37687803    -0.12340
C1122       C  0.13269502  0.15554591  0.36874556     0.01310
C1123       C  0.12453281  0.14710052  0.35213390    -0.10860
C1124       C  0.13262022  0.13048048  0.34365125     0.03800
C1125       C  0.14918925  0.12229846  0.35208381    -0.10290
H1126       H  0.15562326  0.15345597  0.38961380     0.09400
H1127       H  0.11183355  0.15348844  0.34577725     0.06930
H1128       H  0.15550758  0.10954360  0.34569841     0.06770
N1129       N  0.10439308  0.11604003  0.30104367    -0.26610
N1130       N  0.11787176  0.10252683  0.30091065    -0.34470
C1131       C  0.12991505  0.10548840  0.31588381     0.01730
C1132       C  0.12376850  0.12172104  0.32604736     0.07760
C1133       C  0.10748345  0.12796674  0.31609534    -0.05340
H1134       H  0.14221636  0.09638253  0.31900085     0.08420
H1135       H  0.09840887  0.14025455  0.31940599     0.09620
Cu1136     Cu  0.11929323  0.08066035  0.28041214     0.44170
Cu1137     Cu  0.08234015  0.11773795  0.28084398     0.41990
Cu1138     Cu  0.08135324  0.08013988  0.24434782     0.43880
N1139       N  0.11740794  0.06024985  0.25849477    -0.33990
N1140       N  0.10348189  0.05997352  0.24538479    -0.28250
C1141       C  0.10610240  0.04467672  0.23361310    -0.04350
C1142       C  0.12251024  0.03502852  0.23956975     0.07870
C1143       C  0.12928427  0.04516493  0.25539848     0.01660
H1144       H  0.09660061  0.04071032  0.22182343     0.09310
H1145       H  0.14167985  0.04162419  0.26425103     0.08390
N1146       N  0.06120599  0.10225831  0.24600865    -0.35440
N1147       N  0.06164041  0.11609710  0.25924576    -0.27620
C1148       C  0.04654344  0.12803126  0.25646095    -0.02860
C1149       C  0.03623303  0.12135820  0.24071043     0.05750
C1150       C  0.04579852  0.10497905  0.23447682     0.03840
H1151       H  0.04314035  0.14040174  0.26544619     0.08950
H1152       H  0.04173033  0.09559004  0.22261472     0.07780
C1153       C  0.65230057  0.49901198  0.21113664     0.03810
C1154       C  0.64490141  0.48143155  0.21814333    -0.12340
C1155       C  0.63035825  0.48140290  0.23229601     0.01310
C1156       C  0.62312958  0.49897734  0.23935057    -0.10860
C1157       C  0.63050993  0.51656641  0.23247698     0.03800
C1158       C  0.64514006  0.51657170  0.21841703    -0.10290
H1159       H  0.65045739  0.46784260  0.21261340     0.09400
H1160       H  0.61186474  0.49896532  0.25027446     0.06930
H1161       H  0.65084133  0.53017445  0.21305893     0.06770
C1162       C  0.71133479  0.49914645  0.15222449     0.03810
C1163       C  0.71865573  0.51671672  0.14511424    -0.12340
C1164       C  0.73277618  0.51672898  0.13053858     0.01310
C1165       C  0.73967461  0.49914814  0.12317256    -0.10860
C1166       C  0.73255023  0.48156672  0.13032895     0.03800
C1167       C  0.71833251  0.48157834  0.14480631    -0.10290
H1168       H  0.71328249  0.53031165  0.15080908     0.09400
H1169       H  0.75063526  0.49914824  0.11194258     0.06930
H1170       H  0.71275151  0.46798213  0.15030570     0.06770
C1171       C  0.50084954  0.65086767  0.21143960     0.03810
C1172       C  0.48331197  0.64313038  0.21831913    -0.12340
C1173       C  0.48328685  0.62868663  0.23255279     0.01310
C1174       C  0.50078930  0.62159060  0.23974561    -0.10860
C1175       C  0.51832678  0.62909319  0.23300105     0.03800
C1176       C  0.51835765  0.64382137  0.21905279    -0.10290
H1177       H  0.46967514  0.64817673  0.21250831     0.09400
H1178       H  0.50076028  0.61030623  0.25065094     0.06930
H1179       H  0.53201475  0.64978390  0.21418735     0.06770
C1180       C  0.50080671  0.71027113  0.15192365     0.03810
C1181       C  0.51832251  0.71791326  0.14487900    -0.12340
C1182       C  0.51831837  0.73183380  0.13013334     0.01310
C1183       C  0.50080292  0.73853275  0.12260531    -0.10860
C1184       C  0.48328386  0.73132701  0.12970859     0.03800
C1185       C  0.48327936  0.71711594  0.14418197    -0.10290
H1186       H  0.53196856  0.71308976  0.15085705     0.09400
H1187       H  0.50080364  0.74942737  0.11131024     0.06930
H1188       H  0.46963325  0.71129823  0.14924812     0.06770
N1189       N  0.56148493  0.75414356  0.39760710    -0.26610
N1190       N  0.56172747  0.74089910  0.38376536    -0.34470
C1191       C  0.54657645  0.74380928  0.37193216     0.01730
C1192       C  0.53643692  0.75964672  0.37865224     0.07760
C1193       C  0.54615770  0.76581109  0.39497171    -0.05340
H1194       H  0.54301816  0.73485083  0.35958294     0.08420
H1195       H  0.54224021  0.77769737  0.40439040     0.09620
Cu1196     Cu  0.58223017  0.71908766  0.38188595     0.44170
Cu1197     Cu  0.58174729  0.75560120  0.41964121     0.41990
Cu1198     Cu  0.61931945  0.71921999  0.41872636     0.43880
N1199       N  0.60420108  0.69873248  0.38335877    -0.33990
N1200       N  0.61772200  0.69880810  0.39683423    -0.28250
C1201       C  0.62973236  0.68383636  0.39382372    -0.04350
C1202       C  0.62354021  0.67370786  0.37758921     0.07870
C1203       C  0.60724464  0.68369097  0.37139007     0.01660
H1204       H  0.64205131  0.68070732  0.40290402     0.09310
H1205       H  0.59814852  0.68040215  0.35910539     0.08390
N1206       N  0.61780124  0.74103151  0.43922775    -0.35440
N1207       N  0.60400443  0.75426500  0.43965471    -0.27620
C1208       C  0.60685437  0.76593649  0.45498279    -0.02860
C1209       C  0.62327793  0.75978129  0.46448329     0.05750
C1210       C  0.62982339  0.74394057  0.45423886     0.03840
H1211       H  0.59749564  0.77779264  0.45907449     0.08950
H1212       H  0.64215365  0.73495257  0.45765497     0.07780
N1213       N  0.75514031  0.56005992  0.39744413    -0.26610
N1214       N  0.74195886  0.56046915  0.38359006    -0.34470
C1215       C  0.74477308  0.54534860  0.37164566     0.01730
C1216       C  0.76047885  0.53504043  0.37832923     0.07760
C1217       C  0.76667091  0.54463670  0.39472285    -0.05340
H1218       H  0.73583391  0.54192535  0.35925985     0.08420
H1219       H  0.77849436  0.54057870  0.40412023     0.09620
Cu1220     Cu  0.72036556  0.58113293  0.38193771     0.44170
Cu1221     Cu  0.75666558  0.58026279  0.41957538     0.41990
Cu1222     Cu  0.72047865  0.61816621  0.41904279     0.43880
N1223       N  0.70009170  0.60310575  0.38355466    -0.33990
N1224       N  0.70009201  0.61662662  0.39707177    -0.28250
C1225       C  0.68509468  0.62860070  0.39403396    -0.04350
C1226       C  0.67506228  0.62235917  0.37774964     0.07870
C1227       C  0.68511548  0.60609453  0.37155766     0.01660
H1228       H  0.68186848  0.64092060  0.40312380     0.09310
H1229       H  0.68192432  0.59696865  0.35925359     0.08390
N1230       N  0.74233309  0.61632459  0.43952060    -0.35440
N1231       N  0.75546225  0.60241737  0.43977441    -0.27620
C1232       C  0.76717502  0.60505393  0.45508997    -0.02860
C1233       C  0.76117201  0.62145003  0.46479200     0.05750
C1234       C  0.74537016  0.62820736  0.45465390     0.03840
H1235       H  0.77896827  0.59557139  0.45902745     0.08950
H1236       H  0.73650411  0.64059992  0.45822096     0.07780
C1237       C  0.63251965  0.63100229  0.34376165     0.03810
C1238       C  0.64909951  0.62290940  0.35226373    -0.12340
C1239       C  0.65748678  0.63111111  0.36889699     0.01310
C1240       C  0.64898587  0.64771195  0.37701966    -0.10860
C1241       C  0.63240049  0.65611294  0.36881759     0.03800
C1242       C  0.62432533  0.64760823  0.35219090    -0.10290
H1243       H  0.65549335  0.61018035  0.34590764     0.09400
H1244       H  0.65530001  0.65410686  0.38977488     0.06930
H1245       H  0.61161508  0.65394130  0.34579063     0.06770
N1246       N  0.61805653  0.60281266  0.30105083    -0.26610
N1247       N  0.60456552  0.61631542  0.30104527    -0.34470
C1248       C  0.60755224  0.62832113  0.31605917     0.01730
C1249       C  0.62378222  0.62214626  0.32613922     0.07760
C1250       C  0.63000512  0.60586560  0.31608524    -0.05340
H1251       H  0.59844829  0.64061688  0.31925903     0.08420
H1252       H  0.64229193  0.59678310  0.31932354     0.09620
Cu1253     Cu  0.58262757  0.61788862  0.28071976     0.44170
Cu1254     Cu  0.61960349  0.58081879  0.28064805     0.41990
Cu1255     Cu  0.58161431  0.57999802  0.24454808     0.43880
N1256       N  0.56197504  0.61616384  0.25909178    -0.33990
N1257       N  0.56148162  0.60221022  0.24597694    -0.28250
C1258       C  0.54607165  0.60491129  0.23442841    -0.04350
C1259       C  0.53658404  0.62140294  0.24052008     0.07870
C1260       C  0.54694032  0.62815121  0.25620590     0.01660
H1261       H  0.54194819  0.59543984  0.22265151     0.09310
H1262       H  0.54359572  0.64060477  0.26509801     0.08390
N1263       N  0.60379923  0.55982949  0.24576990    -0.35440
N1264       N  0.61776001  0.56023336  0.25884502    -0.27620
C1265       C  0.62968277  0.54515655  0.25581347    -0.02860
C1266       C  0.62289500  0.53487192  0.24007758     0.05750
C1267       C  0.60643803  0.54444731  0.23410836     0.03840
H1268       H  0.64212094  0.54172357  0.26464821     0.08950
H1269       H  0.59693345  0.54038965  0.22235177     0.07780
N1270       N  0.25573465  0.39592032  0.06121063    -0.26610
N1271       N  0.24263474  0.38196409  0.06155859    -0.34470
C1272       C  0.24562542  0.37004966  0.04645088     0.01730
C1273       C  0.26136717  0.37684685  0.03622144     0.07760
C1274       C  0.26738721  0.39329204  0.04583994    -0.05340
H1275       H  0.23676308  0.35761645  0.04296385     0.08420
H1276       H  0.27915524  0.40280292  0.04181639     0.09620
Cu1277     Cu  0.22088161  0.38011339  0.08208835     0.44170
Cu1278     Cu  0.25696900  0.41808992  0.08138318     0.41990
Cu1279     Cu  0.22078484  0.41717632  0.11917825     0.43880
N1280       N  0.20054444  0.38164299  0.10404600    -0.33990
N1281       N  0.20052965  0.39515998  0.11756385    -0.28250
C1282       C  0.18553816  0.39213221  0.12955358    -0.04350
C1283       C  0.17550748  0.37584743  0.12334001     0.07870
C1284       C  0.18555473  0.36963423  0.10706377     0.01660
H1285       H  0.18232374  0.40124734  0.14185906     0.09310
H1286       H  0.18234926  0.35731544  0.09796114     0.08390
N1287       N  0.24237029  0.43787636  0.11741826    -0.35440
N1288       N  0.25550535  0.43830384  0.10350005    -0.27620
C1289       C  0.26703494  0.45376135  0.10614270    -0.02860
C1290       C  0.26089136  0.46336097  0.12255189     0.05750
C1291       C  0.24521573  0.45301794  0.12932940     0.03840
H1292       H  0.27882299  0.45784000  0.09668056     0.08950
H1293       H  0.23631292  0.45643582  0.14175185     0.07780
N1294       N  0.06131104  0.24448496  0.10364493    -0.26610
N1295       N  0.06178051  0.25763100  0.11757038    -0.34470
C1296       C  0.04664141  0.25482625  0.12947999     0.01730
C1297       C  0.03625376  0.23917056  0.12269227     0.07760
C1298       C  0.04583055  0.23299728  0.10628222    -0.05340
H1299       H  0.04326475  0.26373608  0.14191503     0.08420
H1300       H  0.04173110  0.22119884  0.09682619     0.09620
Cu1301     Cu  0.08254992  0.27917482  0.11936349     0.44170
Cu1302     Cu  0.08151881  0.24287871  0.08153367     0.41990
Cu1303     Cu  0.11952468  0.27890467  0.08225825     0.43880
N1304       N  0.10461092  0.29940377  0.11772794    -0.33990
N1305       N  0.11809235  0.29932439  0.10419078    -0.28250
C1306       C  0.13013831  0.31430240  0.10716834    -0.04350
C1307       C  0.12399300  0.32441661  0.12343741     0.07870
C1308       C  0.10770326  0.31442973  0.12968959     0.01660
H1309       H  0.14243846  0.31745708  0.09804195     0.09310
H1310       H  0.09862774  0.31770383  0.14200181     0.08390
N1311       N  0.11769016  0.25706871  0.06176599    -0.35440
N1312       N  0.10373368  0.24397139  0.06141281    -0.27620
C1313       C  0.10639816  0.23224891  0.04608524    -0.02860
C1314       C  0.12286753  0.23822214  0.03649988     0.05750
C1315       C  0.12963217  0.25401250  0.04670332     0.03840
H1316       H  0.09688853  0.22047679  0.04205716     0.08950
H1317       H  0.14206629  0.26286616  0.04322492     0.07780
C1318       C  0.13285635  0.34201147  0.13220915     0.03810
C1319       C  0.14944792  0.35044390  0.12401165    -0.12340
C1320       C  0.15793569  0.36705006  0.13216066     0.01310
C1321       C  0.14954311  0.37521980  0.14879846    -0.10860
C1322       C  0.13296282  0.36709188  0.15728774     0.03800
C1323       C  0.12476859  0.35048681  0.14884560    -0.10290
H1324       H  0.15577084  0.34406673  0.11124788     0.09400
H1325       H  0.15593441  0.38794848  0.15517351     0.06930
H1326       H  0.11204776  0.34413300  0.15524505     0.06770
N1327       N  0.06110974  0.39587023  0.25425549    -0.26610
N1328       N  0.06194283  0.38170139  0.24139515    -0.34470
C1329       C  0.04691533  0.36963456  0.24417461     0.01730
C1330       C  0.03616792  0.37660238  0.25949630     0.07760
C1331       C  0.04544955  0.39326256  0.26550091    -0.05340
H1332       H  0.04384471  0.35699473  0.23544365     0.08420
H1333       H  0.04105703  0.40286570  0.27707115     0.09620
Cu1334     Cu  0.08297931  0.37991934  0.22019260     0.44170
Cu1335     Cu  0.08123461  0.41815019  0.25587345     0.41990
Cu1336     Cu  0.11987992  0.41718299  0.22042658     0.43880
N1337       N  0.10499271  0.38163494  0.20000328    -0.33990
N1338       N  0.11844993  0.39519780  0.20001380    -0.28250
C1339       C  0.13041903  0.39220691  0.18497213    -0.04350
C1340       C  0.12422760  0.37590744  0.17491448     0.07870
C1341       C  0.10800905  0.36965852  0.18498750     0.01660
H1342       H  0.14268613  0.40134706  0.18172661     0.09310
H1343       H  0.09891710  0.35734031  0.18178088     0.08390
N1344       N  0.11780759  0.43773473  0.24222994    -0.35440
N1345       N  0.10358768  0.43823493  0.25504022    -0.27620
C1346       C  0.10612521  0.45361591  0.26673420    -0.02860
C1347       C  0.12279694  0.46306937  0.26107860     0.05750
C1348       C  0.12980649  0.45272510  0.24548135     0.03840
H1349       H  0.09641498  0.45775547  0.27829986     0.08950
H1350       H  0.14243448  0.45608218  0.23686015     0.07780
C1351       C  0.21145118  0.65091418  0.50043317     0.03810
C1352       C  0.21899883  0.64396116  0.48288079    -0.12340
C1353       C  0.23295090  0.62927430  0.48289019     0.01310
C1354       C  0.23963562  0.62174282  0.50045590    -0.10860
C1355       C  0.23238260  0.62879803  0.51801234     0.03800
C1356       C  0.21819535  0.64325483  0.51800005    -0.10290
H1357       H  0.21379213  0.64973362  0.46926004     0.09400
H1358       H  0.25052650  0.61046669  0.50046444     0.06930
H1359       H  0.21255185  0.64866279  0.53161163     0.06770
C1360       C  0.15252435  0.70994717  0.50025002     0.03810
C1361       C  0.14499366  0.71685246  0.51781976    -0.12340
C1362       C  0.13059176  0.73108161  0.51783760     0.01310
C1363       C  0.12345370  0.73822504  0.50029733    -0.10860
C1364       C  0.13086007  0.73138815  0.48272326     0.03800
C1365       C  0.14550443  0.71738618  0.48269376    -0.10290
H1366       H  0.15044189  0.71128101  0.53143029     0.09400
H1367       H  0.11220521  0.74914430  0.50032427     0.06930
H1368       H  0.15119710  0.71206891  0.46906782     0.06770
C1369       C  0.71135241  0.99895271  0.34880564     0.03810
C1370       C  0.71811422  0.98139108  0.35643025    -0.12340
C1371       C  0.73235999  0.98138754  0.37084505     0.01310
C1372       C  0.73960562  0.99895621  0.37789353    -0.10860
C1373       C  0.73287080  0.01651683  0.37039034     0.03800
C1374       C  0.71888064  0.01650960  0.35573160    -0.10290
H1375       H  0.71243145  0.96779045  0.35103729     0.09400
H1376       H  0.75053278  0.99896125  0.38913965     0.06930
H1377       H  0.71365586  0.03010985  0.34993414     0.06770
C1378       C  0.65241260  0.99914515  0.28990792     0.03810
C1379       C  0.64549265  0.01670647  0.28242749    -0.12340
C1380       C  0.63080815  0.01670729  0.26845881     0.01310
C1381       C  0.62328594  0.99914381  0.26170144    -0.10860
C1382       C  0.63035035  0.98158655  0.26888771     0.03800
C1383       C  0.64478237  0.98158829  0.28310267    -0.10290
H1384       H  0.65130966  0.03030735  0.28767369     0.09400
H1385       H  0.61202564  0.99913751  0.25078944     0.06930
H1386       H  0.65017586  0.96798619  0.28873907     0.06770
C1387       C  0.50066867  0.78831419  0.34898112     0.03810
C1388       C  0.48312591  0.78084792  0.35603295    -0.12340
C1389       C  0.48310641  0.76682262  0.37067976     0.01310
C1390       C  0.50062783  0.76003134  0.37815427    -0.10860
C1391       C  0.51817339  0.76720687  0.37104727     0.03800
C1392       C  0.51819343  0.78140503  0.35656784    -0.10290
H1393       H  0.46952505  0.78615647  0.35035593     0.09400
H1394       H  0.50060993  0.74910606  0.38941887     0.06930
H1395       H  0.53180984  0.78692978  0.35108936     0.06770
C1396       C  0.50072378  0.84737379  0.28976045     0.03810
C1397       C  0.48319703  0.85448613  0.28238175    -0.12340
C1398       C  0.48321969  0.86909656  0.26832060     0.01310
C1399       C  0.50075534  0.87646659  0.26140275    -0.10860
C1400       C  0.51827590  0.86930352  0.26850490     0.03800
C1401       C  0.51826645  0.85486567  0.28273971    -0.10290
H1402       H  0.46958169  0.84887916  0.28777876     0.09400
H1403       H  0.50076727  0.88771490  0.25046007     0.06930
H1404       H  0.53186969  0.84936415  0.28822434     0.06770
N1405       N  0.60423904  0.74456213  0.06128919    -0.26610
N1406       N  0.61825109  0.75759440  0.06184072    -0.34470
C1407       C  0.63033467  0.75456711  0.04688117     0.01730
C1408       C  0.62359555  0.73887469  0.03651677     0.07760
C1409       C  0.60699791  0.73292965  0.04591034    -0.05340
H1410       H  0.64282558  0.76340091  0.04356081     0.08420
H1411       H  0.59747369  0.72122623  0.04171948     0.09620
Cu1412     Cu  0.61992577  0.77936647  0.08239602     0.44170
Cu1413     Cu  0.58184685  0.74339009  0.08125658     0.41990
Cu1414     Cu  0.58274785  0.77950251  0.11925812     0.43880
N1415       N  0.61828487  0.79976631  0.10431691    -0.33990
N1416       N  0.60472379  0.79980010  0.11777146    -0.28250
C1417       C  0.60769704  0.81482336  0.12976428    -0.04350
C1418       C  0.62399368  0.82485410  0.12361707     0.07870
C1419       C  0.63026693  0.81477256  0.10737583     0.01660
H1420       H  0.59854360  0.81806080  0.14202855     0.09310
H1421       H  0.64261415  0.81795828  0.09832515     0.08390
N1422       N  0.56206335  0.75791563  0.11737567    -0.35440
N1423       N  0.56159694  0.74484253  0.10338153    -0.27620
C1424       C  0.54613608  0.73331554  0.10599956    -0.02860
C1425       C  0.53658948  0.73938540  0.12247439     0.05750
C1426       C  0.54696409  0.75502309  0.12930954     0.03840
H1427       H  0.54203303  0.72155693  0.09649587     0.08950
H1428       H  0.54359803  0.76387255  0.14179072     0.07780
N1429       N  0.70050237  0.88197009  0.10441508    -0.26610
N1430       N  0.70049440  0.89553329  0.11788797    -0.34470
C1431       C  0.68548278  0.89256405  0.12988361     0.01730
C1432       C  0.67543408  0.87627193  0.12371682     0.07760
C1433       C  0.68549583  0.86999603  0.10746643    -0.05340
H1434       H  0.68225824  0.90171431  0.14216175     0.08420
H1435       H  0.68229081  0.85765614  0.09839390     0.09620
Cu1436     Cu  0.72083722  0.91748752  0.11939391     0.44170
Cu1437     Cu  0.72083610  0.88029975  0.08243229     0.41990
Cu1438     Cu  0.75735224  0.91781915  0.08184863     0.43880
N1439       N  0.74265320  0.93795589  0.11762336    -0.33990
N1440       N  0.75595377  0.93812267  0.10385743    -0.28250
C1441       C  0.76764229  0.95345919  0.10651299    -0.04350
C1442       C  0.76141276  0.96326220  0.12276311     0.07870
C1443       C  0.74552915  0.95316855  0.12942845     0.01660
H1444       H  0.77956454  0.95734236  0.09713773     0.09310
H1445       H  0.73651669  0.95679942  0.14171038     0.08390
N1446       N  0.75586009  0.89577039  0.06159395    -0.35440
N1447       N  0.74257085  0.88199337  0.06184025    -0.27620
C1448       C  0.74538606  0.87017498  0.04661758    -0.02860
C1449       C  0.76121109  0.87685649  0.03643280     0.05750
C1450       C  0.76747298  0.89311425  0.04620377     0.03840
H1451       H  0.73637065  0.85787881  0.04304038     0.08950
H1452       H  0.77937269  0.90249477  0.04226261     0.07780
C1453       C  0.65782725  0.86750253  0.13252138     0.03810
C1454       C  0.64934889  0.87566860  0.14912902    -0.12340
C1455       C  0.63271708  0.86751678  0.15754548     0.01310
C1456       C  0.62458608  0.85090464  0.14905738    -0.10860
C1457       C  0.63276854  0.84244961  0.13245804     0.03800
C1458       C  0.64938348  0.85089642  0.12434514    -0.10290
H1459       H  0.65570994  0.88840859  0.15551876     0.09400
H1460       H  0.61184164  0.84453028  0.15539311     0.06930
H1461       H  0.65576127  0.84452275  0.11161154     0.06770
N1462       N  0.60445330  0.88206935  0.20013398    -0.26610
N1463       N  0.61797389  0.89557024  0.20022408    -0.34470
C1464       C  0.63002580  0.89256253  0.18525611     0.01730
C1465       C  0.62385065  0.87631067  0.17513327     0.07760
C1466       C  0.60753199  0.87010032  0.18510698    -0.05340
H1467       H  0.64235534  0.90165481  0.18211566     0.08420
H1468       H  0.59843524  0.85780425  0.18182735     0.09620
Cu1469     Cu  0.61947079  0.91749644  0.22065250     0.44170
Cu1470     Cu  0.58239704  0.88046498  0.22040365     0.41990
Cu1471     Cu  0.58171425  0.91805959  0.25692484     0.43880
N1472       N  0.61765916  0.93799522  0.24249145    -0.33990
N1473       N  0.60378520  0.93826351  0.25567536    -0.28250
C1474       C  0.60641186  0.95359908  0.26738571    -0.04350
C1475       C  0.62276661  0.96329393  0.26130777     0.07870
C1476       C  0.62951681  0.95313804  0.24547889     0.01660
H1477       H  0.59695407  0.95755017  0.27922422     0.09310
H1478       H  0.64188629  0.95669280  0.23656558     0.08390
N1479       N  0.56154582  0.89596515  0.25545553    -0.35440
N1480       N  0.56183190  0.88215816  0.24218201    -0.27620
C1481       C  0.54669952  0.87026658  0.24507664    -0.02860
C1482       C  0.53654307  0.87692426  0.26094331     0.05750
C1483       C  0.54622040  0.89325902  0.26713163     0.03840
H1484       H  0.54316497  0.85793032  0.23609025     0.08950
H1485       H  0.54226878  0.90264807  0.27903249     0.07780
C1486       C  0.34877135  0.99860105  0.71114799     0.03810
C1487       C  0.35585870  0.98103093  0.71844979    -0.12340
C1488       C  0.37055909  0.98103554  0.73240598     0.01310
C1489       C  0.37791304  0.99860876  0.73932508    -0.10860
C1490       C  0.37065577  0.01616222  0.73232449     0.03800
C1491       C  0.35622027  0.01615946  0.71812378    -0.10290
H1492       H  0.35013839  0.96742935  0.71310066     0.09400
H1493       H  0.38917892  0.99862447  0.75023112     0.06930
H1494       H  0.35071120  0.02976198  0.71260002     0.06770
C1495       C  0.28986029  0.99899900  0.65229863     0.03810
C1496       C  0.28235959  0.98145029  0.64533840    -0.12340
C1497       C  0.26842219  0.98146223  0.63063695     0.01310
C1498       C  0.26171282  0.99902024  0.62312520    -0.10860
C1499       C  0.26894404  0.01657124  0.63021169     0.03800
C1500       C  0.28312963  0.01656418  0.64467560    -0.10290
H1501       H  0.28757377  0.96784452  0.65113298     0.09400
H1502       H  0.25082408  0.99902688  0.61184100     0.06930
H1503       H  0.28880030  0.03016026  0.65009385     0.06770
C1504       C  0.34906724  0.78845398  0.50064741     0.03810
C1505       C  0.35607176  0.78101272  0.48308645    -0.12340
C1506       C  0.37080695  0.76710619  0.48307863     0.01310
C1507       C  0.37835928  0.76043230  0.50065058    -0.10860
C1508       C  0.37121973  0.76757590  0.51823106     0.03800
C1509       C  0.35666488  0.78168134  0.51822010    -0.10290
H1510       H  0.35024472  0.78621045  0.46948636     0.09400
H1511       H  0.38965923  0.74956779  0.50064634     0.06930
H1512       H  0.35118580  0.78728663  0.53181819     0.06770
C1513       C  0.29006950  0.84724151  0.50039960     0.03810
C1514       C  0.28328122  0.85487333  0.51796172    -0.12340
C1515       C  0.26908070  0.86931972  0.51796535     0.01310
C1516       C  0.26184479  0.87633470  0.50040400    -0.10860
C1517       C  0.26858108  0.86879973  0.48283633     0.03800
C1518       C  0.28259038  0.85415445  0.48283500    -0.10290
H1519       H  0.28894681  0.84949888  0.53156165     0.09400
H1520       H  0.25092406  0.88758247  0.50041030     0.06930
H1521       H  0.28783688  0.84833564  0.46923464     0.06770
N1522       N  0.10401607  0.74411815  0.56116487    -0.26610
N1523       N  0.11784689  0.75734488  0.56147412    -0.34470
C1524       C  0.12971880  0.75443850  0.54632874     0.01730
C1525       C  0.12301263  0.73861426  0.53613748     0.07760
C1526       C  0.10668073  0.73245663  0.54580723    -0.05340
H1527       H  0.14205967  0.76340161  0.54279779     0.08420
H1528       H  0.09725532  0.72060355  0.54181799     0.09620
Cu1529     Cu  0.11954245  0.77911172  0.58202943     0.44170
Cu1530     Cu  0.08190794  0.74276689  0.58128719     0.41990
Cu1531     Cu  0.08221731  0.77940073  0.61880513     0.43880
N1532       N  0.11796361  0.79947638  0.60397840    -0.33990
N1533       N  0.10436812  0.79961484  0.61740233    -0.28250
C1534       C  0.10745899  0.81462888  0.62939526    -0.04350
C1535       C  0.12385960  0.82452814  0.62326576     0.07870
C1536       C  0.13006748  0.81438079  0.60705072     0.01660
H1537       H  0.09831231  0.81796512  0.64163865     0.09310
H1538       H  0.14245841  0.81745488  0.59802138     0.08390
N1539       N  0.06166567  0.75759230  0.61690829    -0.35440
N1540       N  0.06154456  0.74424176  0.60317217    -0.27620
C1541       C  0.04622726  0.73252315  0.60578828    -0.02860
C1542       C  0.03636739  0.73878595  0.62198189     0.05750
C1543       C  0.04641953  0.75471952  0.62864887     0.03840
H1544       H  0.04241361  0.72054813  0.59643555     0.08950
H1545       H  0.04275999  0.76373815  0.64092454     0.07780
N1546       N  0.11866179  0.89528439  0.69989826    -0.26610
N1547       N  0.10522170  0.88170832  0.69997312    -0.34470
C1548       C  0.10818325  0.86969859  0.68497724     0.01730
C1549       C  0.12434927  0.87594375  0.67482902     0.07760
C1550       C  0.13057019  0.89227313  0.68481960    -0.05340
H1551       H  0.09908937  0.85736542  0.68183356     0.08420
H1552       H  0.14280850  0.90142607  0.68150373     0.09620
Cu1553     Cu  0.08330500  0.88004727  0.72022826     0.44170
Cu1554     Cu  0.12015153  0.91729646  0.72024940     0.41990
Cu1555     Cu  0.08185136  0.91809868  0.75604785     0.43880
N1556       N  0.06234003  0.88191713  0.74145225    -0.33990
N1557       N  0.06164394  0.89601968  0.75438772    -0.28250
C1558       C  0.04600027  0.89350284  0.76565771    -0.04350
C1559       C  0.03657796  0.87697705  0.75956215     0.07870
C1560       C  0.04721974  0.86997700  0.74419144     0.01660
H1561       H  0.04172187  0.90307763  0.77729438     0.09310
H1562       H  0.04403047  0.85739589  0.73541815     0.08390
N1563       N  0.10413638  0.93811801  0.75511312    -0.35440
N1564       N  0.11819482  0.93775028  0.74212540    -0.27620
C1565       C  0.13013377  0.95279286  0.74529520    -0.02860
C1566       C  0.12325243  0.96298742  0.76103955     0.05750
C1567       C  0.10672498  0.95342779  0.76686789     0.03840
H1568       H  0.14262861  0.95628001  0.73653187     0.08950
H1569       H  0.09711403  0.95747116  0.77855054     0.07780
C1570       C  0.13278173  0.84208216  0.63206554     0.03810
C1571       C  0.12475558  0.85053557  0.64874165    -0.12340
C1572       C  0.13300604  0.86711564  0.65718235     0.01310
C1573       C  0.14957330  0.87522740  0.64866769    -0.10860
C1574       C  0.15790672  0.86708172  0.63199820     0.03800
C1575       C  0.14937017  0.85050825  0.62383816    -0.10290
H1576       H  0.11204363  0.84418479  0.65516674     0.09400
H1577       H  0.15600312  0.88792973  0.65505094     0.06930
H1578       H  0.15564905  0.84416558  0.61103575     0.06770
N1579       N  0.25559465  0.93825318  0.60369868    -0.26610
N1580       N  0.24241666  0.93777326  0.61757398    -0.34470
C1581       C  0.24524540  0.95283665  0.62958496     0.01730
C1582       C  0.26095889  0.96318446  0.62292117     0.07760
C1583       C  0.26713551  0.95367783  0.60646796    -0.05340
H1584       H  0.23629411  0.95620866  0.64198496     0.08420
H1585       H  0.27894946  0.95780397  0.59705869     0.09620
Cu1586     Cu  0.22078634  0.91713784  0.61914881     0.44170
Cu1587     Cu  0.25710437  0.91814414  0.58147900     0.41990
Cu1588     Cu  0.22085643  0.88026968  0.58193943     0.43880
N1589       N  0.20049794  0.89518733  0.61743468    -0.33990
N1590       N  0.20049025  0.88171934  0.60387085    -0.28250
C1591       C  0.18548982  0.86971412  0.60686048    -0.04350
C1592       C  0.17546575  0.87588645  0.62316679     0.07870
C1593       C  0.18551744  0.89213964  0.62942459     0.01660
H1594       H  0.18226580  0.85742110  0.59772910     0.09310
H1595       H  0.18233706  0.90121608  0.64176695     0.08390
N1596       N  0.24270056  0.88212206  0.56150955    -0.35440
N1597       N  0.25587739  0.89600878  0.56125601    -0.27620
C1598       C  0.26759883  0.89333851  0.54594080    -0.02860
C1599       C  0.26153177  0.87694489  0.53625884     0.05750
C1600       C  0.24569684  0.87022636  0.54639174     0.03840
H1601       H  0.27943611  0.90279346  0.54199017     0.08950
H1602       H  0.23678329  0.85784867  0.54283842     0.07780
C1603       C  0.21130462  0.99900582  0.15208950     0.03810
C1604       C  0.21808877  0.01655980  0.14442901    -0.12340
C1605       C  0.23238784  0.01656577  0.13005442     0.01310
C1606       C  0.23966668  0.99900366  0.12305277    -0.10860
C1607       C  0.23292090  0.98143635  0.13057865     0.03800
C1608       C  0.21888162  0.98144496  0.14522398    -0.10290
H1609       H  0.21239522  0.03016338  0.14978312     0.09400
H1610       H  0.25064178  0.99900967  0.11183651     0.06930
H1611       H  0.21365564  0.96784466  0.15105232     0.06770
C1612       C  0.15226514  0.99918613  0.21104302     0.03810
C1613       C  0.14454914  0.01674078  0.21775447    -0.12340
C1614       C  0.13008840  0.01673822  0.23197236     0.01310
C1615       C  0.12308130  0.99917375  0.23924812    -0.10860
C1616       C  0.13068894  0.98162063  0.23259034     0.03800
C1617       C  0.14539621  0.98163128  0.21863001    -0.10290
H1618       H  0.14991938  0.03034518  0.21206713     0.09400
H1619       H  0.11181305  0.99916763  0.25016938     0.06930
H1620       H  0.15126220  0.96803143  0.21345825     0.06770
N1621       N  0.39756280  0.74450478  0.06101035    -0.26610
N1622       N  0.38363615  0.75760391  0.06146973    -0.34470
C1623       C  0.37167026  0.75461188  0.04641674     0.01730
C1624       C  0.37841440  0.73887732  0.03611168     0.07760
C1625       C  0.39487363  0.73286893  0.04562975    -0.05340
H1626       H  0.35924469  0.76347163  0.04301198     0.08420
H1627       H  0.40435031  0.72110820  0.04153504     0.09620
Cu1628     Cu  0.38193828  0.77936150  0.08209243     0.44170
Cu1629     Cu  0.41978116  0.74317738  0.08105053     0.41990
Cu1630     Cu  0.41919824  0.77939670  0.11889717     0.43880
N1631       N  0.38363550  0.79970875  0.10410877    -0.33990
N1632       N  0.39721651  0.79972279  0.11752843    -0.28250
C1633       C  0.39425553  0.81471680  0.12957476    -0.04350
C1634       C  0.37795399  0.82474975  0.12350264     0.07870
C1635       C  0.37166451  0.81469373  0.10724828     0.01660
H1636       H  0.40341710  0.81794111  0.14182775     0.09310
H1637       H  0.35930891  0.81788738  0.09824066     0.08390
N1638       N  0.43973823  0.75764265  0.11700477    -0.35440
N1639       N  0.44002604  0.74447659  0.10309494    -0.27620
C1640       C  0.45535203  0.73280108  0.10570667    -0.02860
C1641       C  0.46501644  0.73887535  0.12209543     0.05750
C1642       C  0.45485280  0.75467653  0.12886715     0.03840
H1643       H  0.45930539  0.72097348  0.09622953     0.08950
H1644       H  0.45837430  0.76357575  0.14126974     0.07780
N1645       N  0.30145877  0.88188580  0.10470414    -0.26610
N1646       N  0.30147176  0.89541768  0.11820766    -0.34470
C1647       C  0.31650656  0.89243021  0.13013958     0.01730
C1648       C  0.32653826  0.87616322  0.12387768     0.07760
C1649       C  0.31645739  0.86992847  0.10765496    -0.05340
H1650       H  0.31975618  0.90154836  0.14243465     0.08420
H1651       H  0.31964088  0.85762686  0.09852711     0.09620
Cu1652     Cu  0.28110258  0.91735154  0.11979347     0.44170
Cu1653     Cu  0.28122312  0.88016900  0.08276397     0.41990
Cu1654     Cu  0.24542680  0.91819670  0.08146164     0.43880
N1655       N  0.25932924  0.93785188  0.11789796    -0.33990
N1656       N  0.24641620  0.93828210  0.10378840    -0.28250
C1657       C  0.23474609  0.95362799  0.10639930    -0.04350
C1658       C  0.24053766  0.96313927  0.12299973     0.07870
C1659       C  0.25618060  0.95286794  0.12989900     0.01660
H1660       H  0.22311439  0.95771226  0.09677598     0.09310
H1661       H  0.26489385  0.95628591  0.14244661     0.08390
N1662       N  0.24690993  0.89595689  0.06131346    -0.35440
N1663       N  0.25983744  0.88188200  0.06195289    -0.27620
C1664       C  0.25695979  0.86984115  0.04691036    -0.02860
C1665       C  0.24148560  0.87671799  0.03638486     0.05750
C1666       C  0.23551000  0.89330983  0.04578195     0.03840
H1667       H  0.26572773  0.85729019  0.04367194     0.08950
H1668       H  0.22388147  0.90286260  0.04153446     0.07780
C1669       C  0.34413798  0.86736160  0.13257693     0.03810
C1670       C  0.35257418  0.85078420  0.12433634    -0.12340
C1671       C  0.36918417  0.84232627  0.13240995     0.01310
C1672       C  0.37735494  0.85075915  0.14903348    -0.10860
C1673       C  0.36920740  0.86734368  0.15756148     0.03800
C1674       C  0.35260286  0.87548490  0.14918069    -0.10290
H1675       H  0.34619478  0.84444326  0.11158971     0.09400
H1676       H  0.39009196  0.84439458  0.15535294     0.06930
H1677       H  0.34623556  0.88819110  0.15560566     0.06770
N1678       N  0.39721907  0.88193385  0.20023506    -0.26610
N1679       N  0.38372417  0.89542722  0.20027335    -0.34470
C1680       C  0.37176425  0.89240568  0.18525639     0.01730
C1681       C  0.37798654  0.87615030  0.17516665     0.07760
C1682       C  0.39422767  0.86995474  0.18520273    -0.05340
H1683       H  0.35946916  0.90149324  0.18206832     0.08420
H1684       H  0.40332384  0.85766216  0.18196573     0.09620
Cu1685     Cu  0.38215035  0.91734728  0.22070691     0.44170
Cu1686     Cu  0.41910772  0.88037056  0.22055945     0.41990
Cu1687     Cu  0.41993247  0.91811217  0.25695574     0.43880
N1688       N  0.38387718  0.93785337  0.24254984    -0.33990
N1689       N  0.39775141  0.93822845  0.25571389    -0.28250
C1690       C  0.39503500  0.95356969  0.26740561    -0.04350
C1691       C  0.37862090  0.96314356  0.26134180     0.07870
C1692       C  0.37193829  0.95291383  0.24553432     0.01660
H1693       H  0.40447074  0.95761105  0.27922316     0.09310
H1694       H  0.35956232  0.95637245  0.23662191     0.08390
N1695       N  0.44006532  0.89595079  0.25545426    -0.35440
N1696       N  0.43964623  0.88208106  0.24224932    -0.27620
C1697       C  0.45469556  0.87011837  0.24509615    -0.02860
C1698       C  0.46497141  0.87678974  0.26085541     0.05750
C1699       C  0.45543825  0.89321366  0.26703595     0.03840
H1700       H  0.45810117  0.85773373  0.23613092     0.08950
H1701       H  0.45951201  0.90262461  0.27887851     0.07780
C1702       C  0.28988063  0.99888397  0.34869485     0.03810
C1703       C  0.28255941  0.01644764  0.35576934    -0.12340
C1704       C  0.26855848  0.01645267  0.37043899     0.01310
C1705       C  0.26171353  0.99889259  0.37788366    -0.10860
C1706       C  0.26881615  0.98132389  0.37072049     0.03800
C1707       C  0.28297276  0.98132042  0.35619822    -0.10290
H1708       H  0.28788523  0.03004270  0.35001786     0.09400
H1709       H  0.25080783  0.99889847  0.38916815     0.06930
H1710       H  0.28854808  0.96772276  0.35070745     0.06770
C1711       C  0.34880416  0.99895966  0.28981291     0.03810
C1712       C  0.35576599  0.01653125  0.28238110    -0.12340
C1713       C  0.37045253  0.01656021  0.26839660     0.01310
C1714       C  0.37802271  0.99900827  0.26167775    -0.10860
C1715       C  0.37094935  0.98142843  0.26886461     0.03800
C1716       C  0.35641715  0.98140912  0.28300976    -0.10290
H1717       H  0.34993113  0.03011596  0.28762730     0.09400
H1718       H  0.38932161  0.99902807  0.25078867     0.06930
H1719       H  0.35099342  0.96780583  0.28864877     0.06770
N1720       N  0.06126929  0.74450736  0.39760463    -0.26610
N1721       N  0.06163214  0.75766099  0.38369668    -0.34470
C1722       C  0.04657064  0.75467382  0.37175798     0.01730
C1723       C  0.03635239  0.73887625  0.37847507     0.07760
C1724       C  0.04593387  0.73282542  0.39491147    -0.05340
H1725       H  0.04311480  0.76356741  0.35934955     0.08420
H1726       H  0.04191673  0.72100293  0.40436371     0.09620
Cu1727     Cu  0.08215590  0.77946495  0.38188470     0.44170
Cu1728     Cu  0.08144510  0.74317913  0.41975338     0.41990
Cu1729     Cu  0.11929419  0.77936338  0.41870335     0.43880
N1730       N  0.10413057  0.79982307  0.38338828    -0.33990
N1731       N  0.11767303  0.79976553  0.39684093    -0.28250
C1732       C  0.12968850  0.81475059  0.39382348    -0.04350
C1733       C  0.12347080  0.82485964  0.37760851     0.07870
C1734       C  0.10715974  0.81485951  0.37142933     0.01660
H1735       H  0.14202965  0.81789607  0.40288086     0.09310
H1736       H  0.09804444  0.81812576  0.35916253     0.08390
N1737       N  0.11770535  0.75759214  0.43921018    -0.35440
N1738       N  0.10377583  0.74447211  0.43972634    -0.27620
C1739       C  0.10658998  0.73282788  0.45506289    -0.02860
C1740       C  0.12313891  0.73886219  0.46445994     0.05750
C1741       C  0.12978923  0.75461954  0.45415359     0.03840
H1742       H  0.09713791  0.72105386  0.45921973     0.08950
H1743       H  0.14222396  0.76352249  0.45749306     0.07780
N1744       N  0.06185563  0.88230458  0.25918486    -0.26610
N1745       N  0.06147886  0.89620678  0.24603227    -0.34470
C1746       C  0.04608260  0.89354147  0.23445607     0.01730
C1747       C  0.03647030  0.87713510  0.24058668     0.07760
C1748       C  0.04674110  0.87038799  0.25630773    -0.05340
H1749       H  0.04205523  0.90298227  0.22264019     0.08420
H1750       H  0.04329933  0.85797502  0.26521367     0.09620
Cu1751     Cu  0.08170475  0.91831426  0.24459386     0.44170
Cu1752     Cu  0.08248138  0.88053289  0.28081501     0.41990
Cu1753     Cu  0.11968172  0.91743300  0.28062799     0.43880
N1754       N  0.10394084  0.93840677  0.24582578    -0.33990
N1755       N  0.11792453  0.93797386  0.25886884    -0.28250
C1756       C  0.12989452  0.95302952  0.25585164    -0.04350
C1757       C  0.12309113  0.96332529  0.24016370     0.07870
C1758       C  0.10659503  0.95379085  0.23420132     0.01660
H1759       H  0.14235325  0.95644968  0.26467692     0.09310
H1760       H  0.09707339  0.95787831  0.22248091     0.08390
N1761       N  0.11802572  0.89553502  0.30103548    -0.35440
N1762       N  0.10445957  0.88208232  0.30108943    -0.27620
C1763       C  0.10741724  0.87012351  0.31612294    -0.02860
C1764       C  0.12370546  0.87629004  0.32614160     0.05750
C1765       C  0.12999245  0.89250645  0.31604034     0.03840
H1766       H  0.09825334  0.85787157  0.31937910     0.08950
H1767       H  0.14233647  0.90156263  0.31921848     0.07780
C1768       C  0.13244638  0.86749082  0.34375237     0.03810
C1769       C  0.12424417  0.85089729  0.35219787    -0.12340
C1770       C  0.13232688  0.84244305  0.36882073     0.01310
C1771       C  0.14892083  0.85087859  0.37699862    -0.10860
C1772       C  0.15742933  0.86746805  0.36885032     0.03800
C1773       C  0.14904032  0.87562523  0.35222527    -0.10290
H1774       H  0.11152728  0.84453226  0.34580824     0.09400
H1775       H  0.15523149  0.84451614  0.38975474     0.06930
H1776       H  0.15544583  0.88834938  0.34585928     0.06770
N1777       N  0.20008067  0.88193086  0.39694913    -0.26610
N1778       N  0.20011006  0.89547442  0.38347329    -0.34470
C1779       C  0.18510215  0.89250987  0.37149377     0.01730
C1780       C  0.17501861  0.87624086  0.37767311     0.07760
C1781       C  0.18505376  0.86997565  0.39391645    -0.05340
H1782       H  0.18191640  0.90164012  0.35920780     0.08420
H1783       H  0.18182678  0.85764272  0.40298079     0.09620
Cu1784     Cu  0.22052252  0.91737887  0.38190508     0.44170
Cu1785     Cu  0.22043825  0.88022842  0.41886134     0.41990
Cu1786     Cu  0.25684566  0.91788591  0.41958837     0.43880
N1787       N  0.24239175  0.93781471  0.38360945    -0.33990
N1788       N  0.25559295  0.93808364  0.39745106    -0.28250
C1789       C  0.26732636  0.95338097  0.39473139    -0.04350
C1790       C  0.26124985  0.96303835  0.37834865     0.07870
C1791       C  0.24538831  0.95290760  0.37168871     0.01660
H1792       H  0.27918180  0.95733760  0.40414699     0.09310
H1793       H  0.23645520  0.95645029  0.35934169     0.08390
N1794       N  0.25545894  0.89566227  0.43969003    -0.35440
N1795       N  0.24225392  0.88180554  0.43933376    -0.27620
C1796       C  0.24520665  0.86980308  0.45436858    -0.02860
C1797       C  0.26104145  0.87643330  0.46455363     0.05750
C1798       C  0.26713631  0.89288293  0.45499201     0.03840
H1799       H  0.23625283  0.85743313  0.45784360     0.08950
H1800       H  0.27897932  0.90229810  0.45901441     0.07780
C1801       C  0.15257658  0.99896566  0.78979999     0.03810
C1802       C  0.14550473  0.01648974  0.78244467    -0.12340
C1803       C  0.13096900  0.01642185  0.76834640     0.01310
C1804       C  0.12361161  0.99883351  0.76147679    -0.10860
C1805       C  0.13077422  0.98130051  0.76863211     0.03800
C1806       C  0.14520325  0.98136343  0.78285597    -0.10290
H1807       H  0.15118071  0.03011164  0.78779429     0.09400
H1808       H  0.11240034  0.99878982  0.75051443     0.06930
H1809       H  0.15071550  0.96779511  0.78845631     0.06770
C1810       C  0.21140966  0.99954303  0.84853318     0.03810
C1811       C  0.21853288  0.98198889  0.85576219    -0.12340
C1812       C  0.23280937  0.98200402  0.87012111     0.01310
C1813       C  0.23986101  0.99956045  0.87737041    -0.10860
C1814       C  0.23277760  0.01711559  0.87020202     0.03800
C1815       C  0.21860836  0.01711578  0.85572156    -0.10290
H1816       H  0.21299452  0.96838757  0.85021915     0.09400
H1817       H  0.25085195  0.99956152  0.88855488     0.06930
H1818       H  0.21311558  0.03070763  0.85015877     0.06770
C1819       C  0.15198453  0.78825427  0.00036178     0.03810
C1820       C  0.14578398  0.77965007  0.01780140    -0.12340
C1821       C  0.13087026  0.76591468  0.01782261     0.01310
C1822       C  0.12276967  0.75978671  0.00032984    -0.10860
C1823       C  0.12923233  0.76763049  0.98283585     0.03800
C1824       C  0.14336770  0.78217955  0.98288113    -0.10290
H1825       H  0.15241651  0.78363553  0.03142984     0.09400
H1826       H  0.11154326  0.74882071  0.00032226     0.06930
H1827       H  0.14757042  0.78868861  0.96925580     0.06770
C1828       C  0.21165126  0.84797490  0.00058364     0.03810
C1829       C  0.22022584  0.85415974  0.01804350    -0.12340
C1830       C  0.23394168  0.86910218  0.01808469     0.01310
C1831       C  0.24007113  0.87723040  0.00061029    -0.10860
C1832       C  0.23220383  0.87081310  0.98312602     0.03800
C1833       C  0.21768250  0.85666998  0.98313593    -0.10290
H1834       H  0.21623374  0.84749791  0.03165978     0.09400
H1835       H  0.25101780  0.88847764  0.00061224     0.06930
H1836       H  0.21116329  0.85251519  0.96950376     0.06770
N1837       N  0.39780478  0.74458680  0.93954953    -0.26610
N1838       N  0.38370072  0.75749236  0.93911989    -0.34470
C1839       C  0.37171228  0.75431077  0.95411717     0.01730
C1840       C  0.37860415  0.73864885  0.96438078     0.07760
C1841       C  0.39519935  0.73287781  0.95489078    -0.05340
H1842       H  0.35917608  0.76302146  0.95753174     0.08420
H1843       H  0.40482203  0.72124808  0.95898749     0.09620
Cu1844     Cu  0.38173660  0.77931646  0.91869123     0.44170
Cu1845     Cu  0.42008735  0.74371080  0.91945992     0.41990
Cu1846     Cu  0.41864210  0.77977499  0.88151067     0.43880
N1847       N  0.38309668  0.79978752  0.89685820    -0.33990
N1848       N  0.39655530  0.79991841  0.88329969    -0.28250
C1849       C  0.39344104  0.81495386  0.87139673    -0.04350
C1850       C  0.37715865  0.82489387  0.87770717     0.07870
C1851       C  0.37104022  0.81474644  0.89395309     0.01660
H1852       H  0.40250389  0.81825668  0.85908318     0.09310
H1853       H  0.35875105  0.81786706  0.90310253     0.08390
N1854       N  0.43952707  0.75838376  0.88319971    -0.35440
N1855       N  0.44018237  0.74536583  0.89721975    -0.27620
C1856       C  0.45570366  0.73397767  0.89453447    -0.02860
C1857       C  0.46510091  0.74005636  0.87798199     0.05750
C1858       C  0.45456948  0.75557377  0.87116303     0.03840
H1859       H  0.45993715  0.72228295  0.90403408     0.08950
H1860       H  0.45779118  0.76439788  0.85863250     0.07780
N1861       N  0.39758655  0.93810130  0.74592425    -0.26610
N1862       N  0.38341712  0.93754918  0.75878503    -0.34470
C1863       C  0.37132994  0.95243076  0.75557088     0.01730
C1864       C  0.37821599  0.96275848  0.73993273     0.07760
C1865       C  0.39492081  0.95342615  0.73421560    -0.05340
H1866       H  0.35874200  0.95573984  0.76426340     0.08420
H1867       H  0.40457864  0.95762857  0.72262632     0.09620
Cu1868     Cu  0.38149071  0.91715540  0.78063292     0.44170
Cu1869     Cu  0.42003141  0.91817100  0.74511308     0.41990
Cu1870     Cu  0.41842101  0.88012954  0.78105186     0.43880
N1871       N  0.38291470  0.89536162  0.80112067    -0.33990
N1872       N  0.39638987  0.88185177  0.80122094    -0.28250
C1873       C  0.39334103  0.86995579  0.81627956    -0.04350
C1874       C  0.37707984  0.87622011  0.82627131     0.07870
C1875       C  0.37090160  0.89243265  0.81613038     0.01660
H1876       H  0.40243604  0.85768473  0.81956383     0.09310
H1877       H  0.35860814  0.90154713  0.81928323     0.08390
N1878       N  0.43939474  0.88188583  0.75978237    -0.35440
N1879       N  0.44016794  0.89595833  0.74682646    -0.27620
C1880       C  0.45578192  0.89330445  0.73553275    -0.02860
C1881       C  0.46509493  0.87671861  0.74161054     0.05750
C1882       C  0.45442229  0.86984521  0.75702522     0.03840
H1883       H  0.46012303  0.90282907  0.72388283     0.08950
H1884       H  0.45753470  0.85727920  0.76582209     0.07780
C1885       C  0.34328566  0.86753312  0.86899447     0.03810
C1886       C  0.35171490  0.85092495  0.87716684    -0.12340
C1887       C  0.36829705  0.84247152  0.86897648     0.01310
C1888       C  0.37641218  0.85090620  0.85234716    -0.10860
C1889       C  0.36828240  0.86748508  0.84389028     0.03800
C1890       C  0.35172515  0.87565398  0.85235425    -0.10290
H1891       H  0.34535808  0.84456476  0.88992590     0.09400
H1892       H  0.38911166  0.84453587  0.84595045     0.06930
H1893       H  0.34540530  0.88838934  0.84596786     0.06770
N1894       N  0.30080995  0.88249643  0.89712580    -0.26610
N1895       N  0.30077974  0.89580550  0.88341923    -0.34470
C1896       C  0.31570190  0.89259900  0.87139666     0.01730
C1897       C  0.32574468  0.87641471  0.87778157     0.07760
C1898       C  0.31576804  0.87044223  0.89419411    -0.05340
H1899       H  0.31885624  0.90152682  0.85894631     0.08420
H1900       H  0.31901875  0.85826924  0.90345172     0.09620
Cu1901     Cu  0.28055282  0.91779816  0.88157435     0.44170
Cu1902     Cu  0.28053104  0.88134801  0.91918360     0.41990
Cu1903     Cu  0.24388879  0.91868076  0.91893871     0.43880
N1904       N  0.25887195  0.93838942  0.88306142    -0.33990
N1905       N  0.24552743  0.93871403  0.89677958    -0.28250
C1906       C  0.23394614  0.95406796  0.89401037    -0.04350
C1907       C  0.24028017  0.96372960  0.87773581     0.07870
C1908       C  0.25612493  0.95353547  0.87115961     0.01660
H1909       H  0.22202640  0.95806466  0.90333568     0.09310
H1910       H  0.26519772  0.95705566  0.85888893     0.08390
N1911       N  0.24523586  0.89699128  0.93949767    -0.35440
N1912       N  0.25864897  0.88336330  0.93958416    -0.27620
C1913       C  0.25577080  0.87176273  0.95493011    -0.02860
C1914       C  0.23975735  0.87838956  0.96482896     0.05750
C1915       C  0.23344397  0.89442693  0.95477942     0.03840
H1916       H  0.26483018  0.85959659  0.95875148     0.08950
H1917       H  0.22140879  0.90372118  0.95845102     0.07780
C1918       C  0.34893262  0.71007574  0.00026751     0.03810
C1919       C  0.35613705  0.71728779  0.01783088    -0.12340
C1920       C  0.37079030  0.73130932  0.01782201     0.01310
C1921       C  0.37823846  0.73811977  0.00024581    -0.10860
C1922       C  0.37098592  0.73108542  0.98267794     0.03800
C1923       C  0.35632719  0.71706639  0.98268982    -0.10290
H1924       H  0.35042739  0.71193479  0.03143407     0.09400
H1925       H  0.38956114  0.74898535  0.00023835     0.06930
H1926       H  0.35073180  0.71157647  0.96909574     0.06770
C1927       C  0.28993760  0.65126111  0.00045218     0.03810
C1928       C  0.28273223  0.64409159  0.01803795    -0.12340
C1929       C  0.26863901  0.62950001  0.01807179     0.01310
C1930       C  0.26174602  0.62208939  0.00050585    -0.10860
C1931       C  0.26880720  0.62927889  0.98291439     0.03800
C1932       C  0.28290382  0.64386387  0.98289511    -0.10290
H1933       H  0.28814553  0.64977949  0.03162483     0.09400
H1934       H  0.25084989  0.61079577  0.00052534     0.06930
H1935       H  0.28842833  0.64939651  0.96928731     0.06770
C1936       C  0.34900023  0.49923999  0.78966314     0.03810
C1937       C  0.35625537  0.48167922  0.78249833    -0.12340
C1938       C  0.37085493  0.48168492  0.76841538     0.01310
C1939       C  0.37822475  0.49926686  0.76152385    -0.10860
C1940       C  0.37094271  0.51683689  0.76852390     0.03800
C1941       C  0.35631419  0.51681694  0.78257988    -0.10290
H1942       H  0.35059856  0.46807815  0.78790842     0.09400
H1943       H  0.38951356  0.49927658  0.75062455     0.06930
H1944       H  0.35069361  0.53040679  0.78804244     0.06770
C1945       C  0.29005006  0.49903215  0.84856443     0.03810
C1946       C  0.28297762  0.51659007  0.85591249    -0.12340
C1947       C  0.26889934  0.51658046  0.87051614     0.01310
C1948       C  0.26187119  0.49899866  0.87775399    -0.10860
C1949       C  0.26878840  0.48143069  0.87038684     0.03800
C1950       C  0.28288536  0.48145347  0.85579566    -0.10290
H1951       H  0.28846637  0.53019242  0.85033484     0.09400
H1952       H  0.25097066  0.49898812  0.88904286     0.06930
H1953       H  0.28831166  0.46786485  0.85013587     0.06770
N1954       N  0.11829127  0.60265005  0.80091741    -0.26610
N1955       N  0.10470668  0.61606080  0.80100624    -0.34470
C1956       C  0.10775258  0.62806637  0.81602923     0.01730
C1957       C  0.12410962  0.62196261  0.82598768     0.07760
C1958       C  0.13033524  0.60574499  0.81585872    -0.05340
H1959       H  0.09861274  0.64030989  0.81932935     0.08420
H1960       H  0.14270189  0.59672895  0.81897427     0.09620
Cu1961     Cu  0.08263591  0.61741539  0.78067882     0.44170
Cu1962     Cu  0.11994644  0.58068587  0.78054735     0.41990
Cu1963     Cu  0.08240977  0.57976674  0.74412634     0.43880
N1964       N  0.06217316  0.61547377  0.75876692    -0.33990
N1965       N  0.06206567  0.60168046  0.74547198    -0.28250
C1966       C  0.04679414  0.60426189  0.73370757    -0.04350
C1967       C  0.03695857  0.62050802  0.73985528     0.07870
C1968       C  0.04696936  0.62721822  0.75579746     0.01660
H1969       H  0.04298050  0.59483931  0.72178790     0.09310
H1970       H  0.04328435  0.63950886  0.76478116     0.08390
N1971       N  0.10457934  0.55971485  0.74553726    -0.35440
N1972       N  0.11837466  0.56009427  0.75877995    -0.27620
C1973       C  0.13029401  0.54499300  0.75590001    -0.02860
C1974       C  0.12365993  0.53474834  0.74007733     0.05750
C1975       C  0.10731910  0.54435335  0.73389625     0.03840
H1976       H  0.14261365  0.54152284  0.76488549     0.08950
H1977       H  0.09793527  0.54031135  0.72203726     0.07780
N1978       N  0.11821061  0.69845621  0.89688225    -0.26610
N1979       N  0.10494948  0.69849473  0.88314791    -0.34470
C1980       C  0.10813440  0.68356435  0.87111519     0.01730
C1981       C  0.12426014  0.67347426  0.87749246     0.07760
C1982       C  0.13022756  0.68344843  0.89393702    -0.05340
H1983       H  0.09921816  0.68043380  0.85866034     0.08420
H1984       H  0.14236266  0.68015017  0.90320609     0.09620
Cu1985     Cu  0.08296285  0.71864743  0.88122401     0.44170
Cu1986     Cu  0.11924170  0.71884177  0.91897220     0.41990
Cu1987     Cu  0.08125318  0.75497188  0.91882829     0.43880
N1988       N  0.06206426  0.73997564  0.88262316    -0.33990
N1989       N  0.06134601  0.75313325  0.89651974    -0.28250
C1990       C  0.04583525  0.76447423  0.89370406    -0.04350
C1991       C  0.03651041  0.75820640  0.87719825     0.07870
C1992       C  0.04706396  0.74263088  0.87053186     0.01660
H1993       H  0.04154550  0.77624981  0.90309961     0.09310
H1994       H  0.04389040  0.73366864  0.85808102     0.08390
N1995       N  0.10309379  0.75404184  0.93929846    -0.35440
N1996       N  0.11696023  0.74086752  0.93932348    -0.27620
C1997       C  0.12859529  0.74402707  0.95458707    -0.02860
C1998       C  0.12175602  0.75996837  0.96450695     0.05750
C1999       C  0.10553834  0.76593449  0.95454628     0.03840
H2000       H  0.14091745  0.73517555  0.95836943     0.08950
H2001       H  0.09603825  0.77779906  0.95826650     0.07780
C2002       C  0.13298441  0.63079045  0.84357178     0.03810
C2003       C  0.12488343  0.64740407  0.85205754    -0.12340
C2004       C  0.13306410  0.65588498  0.86865848     0.01310
C2005       C  0.14966413  0.64745488  0.87676718    -0.10860
C2006       C  0.15808066  0.63083000  0.86859461     0.03800
C2007       C  0.14959301  0.62265207  0.85199527    -0.10290
H2008       H  0.11214601  0.65373766  0.84571727     0.09400
H2009       H  0.15604881  0.65386679  0.88948076     0.06930
H2010       H  0.15592768  0.60990089  0.84562179     0.06770
N2011       N  0.25594296  0.60238961  0.93960834    -0.26610
N2012       N  0.24274767  0.61622944  0.93922103    -0.34470
C2013       C  0.24559758  0.62818481  0.95433080     0.01730
C2014       C  0.26134453  0.62154590  0.96461516     0.07760
C2015       C  0.26751938  0.60514685  0.95500962    -0.05340
H2016       H  0.23664403  0.64054894  0.95777460     0.08420
H2017       H  0.27934637  0.59575576  0.95906286     0.09620
Cu2018     Cu  0.22104669  0.61789077  0.91862220     0.44170
Cu2019     Cu  0.25737663  0.58018477  0.91942576     0.41990
Cu2020     Cu  0.22104063  0.58080907  0.88165115     0.43880
N2021       N  0.20070496  0.61629286  0.89666621    -0.33990
N2022       N  0.20069569  0.60275910  0.88316446    -0.28250
C2023       C  0.18570135  0.60575587  0.87117896    -0.04350
C2024       C  0.17566631  0.62203704  0.87738280     0.07870
C2025       C  0.18571998  0.62827235  0.89364663     0.01660
H2026       H  0.18247944  0.59663423  0.85887890     0.09310
H2027       H  0.18251969  0.64059094  0.90274626     0.08390
N2028       N  0.24276698  0.56025391  0.88342689    -0.35440
N2029       N  0.25595405  0.55992913  0.89728394    -0.27620
C2030       C  0.26755134  0.54454005  0.89458310    -0.02860
C2031       C  0.26140126  0.53487954  0.87820172     0.05750
C2032       C  0.24564571  0.54511675  0.87151721     0.03840
H2033       H  0.27938128  0.54053751  0.90399587     0.08950
H2034       H  0.23670859  0.54162597  0.85914862     0.07780
C2035       C  0.15240975  0.20951431  0.00063329     0.03810
C2036       C  0.14492172  0.21643069  0.01820377    -0.12340
C2037       C  0.13049482  0.23065700  0.01820618     0.01310
C2038       C  0.12345534  0.23785903  0.00063514    -0.10860
C2039       C  0.13091363  0.23102874  0.98306924     0.03800
C2040       C  0.14544128  0.21691316  0.98307053    -0.10290
H2041       H  0.15034549  0.21080494  0.03180041     0.09400
H2042       H  0.11224875  0.24882069  0.00063213     0.06930
H2043       H  0.15118900  0.21158309  0.96947195     0.06770
C2044       C  0.21129011  0.15072711  0.00047762     0.03810
C2045       C  0.21830039  0.14336445  0.01804198    -0.12340
C2046       C  0.23260267  0.12901604  0.01803564     0.01310
C2047       C  0.23978760  0.12192030  0.00046011    -0.10860
C2048       C  0.23283258  0.12921721  0.98289355     0.03800
C2049       C  0.21863725  0.14367366  0.98290390    -0.10290
H2050       H  0.21268378  0.14882346  0.03164407     0.09400
H2051       H  0.25080364  0.11076675  0.00045336     0.06930
H2052       H  0.21323458  0.14932453  0.96930906     0.06770
N2053       N  0.06136016  0.39601614  0.74667717    -0.26610
N2054       N  0.06216741  0.38201336  0.75969931    -0.34470
C2055       C  0.04716673  0.36988824  0.75708858     0.01730
C2056       C  0.03643271  0.37660238  0.74169309     0.07760
C2057       C  0.04569616  0.39322812  0.73548323    -0.05340
H2058       H  0.04409753  0.35738424  0.76600173     0.08420
H2059       H  0.04128049  0.40267974  0.72381616     0.09620
Cu2060     Cu  0.08310317  0.38039880  0.78090262     0.44170
Cu2061     Cu  0.08162091  0.41824004  0.74488066     0.41990
Cu2062     Cu  0.12012555  0.41726673  0.78070339     0.43880
N2063       N  0.10504828  0.38183323  0.80107626    -0.33990
N2064       N  0.11860651  0.39528549  0.80107145    -0.28250
C2065       C  0.13056780  0.39215956  0.81606007    -0.04350
C2066       C  0.12425161  0.37588152  0.82607604     0.07870
C2067       C  0.10797550  0.36978821  0.81603419     0.01660
H2068       H  0.14291143  0.40119663  0.81929115     0.09310
H2069       H  0.09878782  0.35753775  0.81922907     0.08390
N2070       N  0.11820128  0.43773365  0.75885346    -0.35440
N2071       N  0.10413656  0.43820256  0.74588509    -0.27620
C2072       C  0.10685678  0.45353968  0.73418656    -0.02860
C2073       C  0.12345491  0.46299977  0.74002713     0.05750
C2074       C  0.13024503  0.45271118  0.75572519     0.03840
H2075       H  0.09729015  0.45767530  0.72252058     0.08950
H2076       H  0.14275798  0.45608926  0.76449032     0.07780
N2077       N  0.10424068  0.24397787  0.93980347    -0.26610
N2078       N  0.11810504  0.25716877  0.93937677    -0.34470
C2079       C  0.13003134  0.25430205  0.95447596     0.01730
C2080       C  0.12331975  0.23854900  0.96477204     0.07760
C2081       C  0.10693016  0.23239681  0.95520069    -0.05340
H2082       H  0.14240681  0.26325136  0.95791017     0.08420
H2083       H  0.09749253  0.22058300  0.95927712     0.09620
Cu2084     Cu  0.11973102  0.27886104  0.91872972     0.44170
Cu2085     Cu  0.08206525  0.24252773  0.91974819     0.41990
Cu2086     Cu  0.08226052  0.27910865  0.88216064     0.43880
N2087       N  0.11806095  0.29922945  0.89678531    -0.33990
N2088       N  0.10441371  0.29936491  0.88343329    -0.28250
C2089       C  0.10745525  0.31439407  0.87144733    -0.04350
C2090       C  0.12387578  0.32430781  0.87750551     0.07870
C2091       C  0.13014310  0.31414721  0.89367181     0.01660
H2092       H  0.09826169  0.31774181  0.85926048     0.09310
H2093       H  0.14256119  0.31722731  0.90264548     0.08390
N2094       N  0.06173014  0.25725939  0.88416238    -0.35440
N2095       N  0.06165117  0.24392195  0.89789822    -0.27620
C2096       C  0.04634160  0.23217604  0.89532008    -0.02860
C2097       C  0.03643904  0.23841069  0.87915760     0.05750
C2098       C  0.04646381  0.25435412  0.87247278     0.03840
H2099       H  0.04255601  0.22020685  0.90468237     0.08950
H2100       H  0.04277291  0.26335676  0.86021206     0.07780
C2101       C  0.13276333  0.34189566  0.86870600     0.03810
C2102       C  0.12470503  0.35036801  0.85206792    -0.12340
C2103       C  0.13292631  0.36698578  0.84365929     0.01310
C2104       C  0.14949259  0.37510174  0.85215282    -0.10860
C2105       C  0.15786347  0.36694790  0.86876661     0.03800
C2106       C  0.14935739  0.35034380  0.87690689    -0.10290
H2107       H  0.11200012  0.34400379  0.84564734     0.09400
H2108       H  0.15589299  0.38783162  0.84580394     0.06930
H2109       H  0.15566327  0.34399815  0.88967636     0.06770
N2110       N  0.25565118  0.39585382  0.93955701    -0.26610
N2111       N  0.24254010  0.38190873  0.93917881    -0.34470
C2112       C  0.24549043  0.36996386  0.95425121     0.01730
C2113       C  0.26121646  0.37672777  0.96450299     0.07760
C2114       C  0.26726855  0.39318810  0.95492876    -0.05340
H2115       H  0.23660948  0.35753331  0.95769832     0.08420
H2116       H  0.27904797  0.40267230  0.95897539     0.09620
Cu2117     Cu  0.22082142  0.38010313  0.91866912     0.44170
Cu2118     Cu  0.25697359  0.41801997  0.91936844     0.41990
Cu2119     Cu  0.22075104  0.41718415  0.88162104     0.43880
N2120       N  0.20047534  0.38163634  0.89678225    -0.33990
N2121       N  0.20044486  0.39515337  0.88328004    -0.28250
C2122       C  0.18544053  0.39209384  0.87132866    -0.04350
C2123       C  0.17542760  0.37579146  0.87755696     0.07870
C2124       C  0.18549642  0.36960535  0.89379779     0.01660
H2125       H  0.18221236  0.40119317  0.85903225     0.09310
H2126       H  0.18231711  0.35728154  0.90289280     0.08390
N2127       N  0.24250456  0.43778402  0.88328219    -0.35440
N2128       N  0.25565601  0.43816817  0.89716955    -0.27620
C2129       C  0.26730481  0.45353151  0.89445328    -0.02860
C2130       C  0.26124097  0.46312012  0.87802124     0.05750
C2131       C  0.24546248  0.45286775  0.87132691     0.03840
H2132       H  0.27910754  0.45757449  0.90389881     0.08950
H2133       H  0.23655667  0.45632407  0.85893582     0.07780
C2134       C  0.34858437  0.28823711  0.00025708     0.03810
C2135       C  0.35586480  0.28115193  0.01782499    -0.12340
C2136       C  0.37031141  0.26695005  0.01782122     0.01310
C2137       C  0.37757377  0.25992904  0.00024851    -0.10860
C2138       C  0.37032567  0.26692323  0.98267885     0.03800
C2139       C  0.35578198  0.28102855  0.98268344    -0.10290
H2140       H  0.35030621  0.28667236  0.03142618     0.09400
H2141       H  0.38880253  0.24899012  0.00024611     0.06930
H2142       H  0.35018379  0.28647854  0.96908600     0.06770
C2143       C  0.28992803  0.34724192  0.00031812     0.03810
C2144       C  0.28297691  0.35466761  0.01789689    -0.12340
C2145       C  0.26890823  0.36924274  0.01791802     0.01310
C2146       C  0.26188633  0.37649158  0.00036133    -0.10860
C2147       C  0.26873722  0.36908612  0.98278188     0.03800
C2148       C  0.28270085  0.35440578  0.98276028    -0.10290
H2149       H  0.28848350  0.34910781  0.03148770     0.09400
H2150       H  0.25102288  0.38779451  0.00037974     0.06930
H2151       H  0.28803866  0.34868582  0.96915302     0.06770
N2152       N  0.39702587  0.11578152  0.80084574    -0.26610
N2153       N  0.38335160  0.10243450  0.80077222    -0.34470
C2154       C  0.37132809  0.10561541  0.81572537     0.01730
C2155       C  0.37767952  0.12181854  0.82582577     0.07760
C2156       C  0.39407210  0.12782190  0.81584930    -0.05340
H2157       H  0.35889707  0.09666574  0.81887130     0.08420
H2158       H  0.40330985  0.14001290  0.81912980     0.09620
Cu2159     Cu  0.38160809  0.08043418  0.78041138     0.44170
Cu2160     Cu  0.41911546  0.11705360  0.78057995     0.41990
Cu2161     Cu  0.41924347  0.07962521  0.74396999     0.43880
N2162       N  0.38330584  0.05983559  0.75862807    -0.33990
N2163       N  0.39714028  0.05952606  0.74540286    -0.28250
C2164       C  0.39451049  0.04415511  0.73375615    -0.04350
C2165       C  0.37820043  0.03445898  0.73990956     0.07870
C2166       C  0.37145851  0.04466220  0.75571963     0.01660
H2167       H  0.40394470  0.04018022  0.72190653     0.09310
H2168       H  0.35911179  0.04112018  0.76466946     0.08390
N2169       N  0.43965502  0.10144887  0.74536256    -0.35440
N2170       N  0.43960640  0.11515682  0.75873830    -0.27620
C2171       C  0.45486968  0.12686597  0.75585001    -0.02860
C2172       C  0.46485195  0.12021098  0.73987211     0.05750
C2173       C  0.45493926  0.10405298  0.73360085     0.03840
H2174       H  0.45858691  0.13911192  0.76488629     0.08950
H2175       H  0.45870076  0.09471054  0.72160218     0.07780
N2176       N  0.30128345  0.11640688  0.89677543    -0.26610
N2177       N  0.30122590  0.10287888  0.88327143    -0.34470
C2178       C  0.31620078  0.10582748  0.87123742     0.01730
C2179       C  0.32630504  0.12207654  0.87740467     0.07760
C2180       C  0.31631246  0.12834959  0.89370356    -0.05340
H2181       H  0.31934629  0.09669839  0.85892352     0.08420
H2182       H  0.31957416  0.14066907  0.90278393     0.09620
Cu2183     Cu  0.28084261  0.08102410  0.88172397     0.44170
Cu2184     Cu  0.28094704  0.11804307  0.91876242     0.41990
Cu2185     Cu  0.24446106  0.08038740  0.91936394     0.43880
N2186       N  0.25902951  0.06060407  0.88332073    -0.33990
N2187       N  0.24578705  0.06027129  0.89713831    -0.28250
C2188       C  0.23409608  0.04496452  0.89432164    -0.04350
C2189       C  0.24025731  0.03538731  0.87790097     0.07870
C2190       C  0.25611467  0.04555699  0.87132046     0.01660
H2191       H  0.22222126  0.04094181  0.90369864     0.09310
H2192       H  0.26510504  0.04207236  0.85898000     0.08390
N2193       N  0.24590201  0.10252110  0.93957543    -0.35440
N2194       N  0.25914433  0.11634603  0.93928726    -0.27620
C2195       C  0.25623437  0.12825888  0.95441959    -0.02860
C2196       C  0.24039277  0.12160413  0.96459323     0.05750
C2197       C  0.23423438  0.10524229  0.95491749     0.03840
H2198       H  0.26520527  0.14060087  0.95795096     0.08950
H2199       H  0.22235690  0.09584529  0.95888654     0.07780
C2200       C  0.34388508  0.13081256  0.86852866     0.03810
C2201       C  0.35236448  0.14742119  0.87663880    -0.12340
C2202       C  0.36895971  0.15584004  0.86845762     0.01310
C2203       C  0.37708466  0.14734767  0.85183628    -0.10860
C2204       C  0.36890581  0.13071375  0.84341626     0.03800
C2205       C  0.35229937  0.12260307  0.85191610    -0.10290
H2206       H  0.34602183  0.15381609  0.88937803     0.09400
H2207       H  0.38980931  0.15370478  0.84543453     0.06930
H2208       H  0.34591330  0.10984454  0.84559477     0.06770
N2209       N  0.39727843  0.25389327  0.93951537    -0.26610
N2210       N  0.38342180  0.24069189  0.93909145    -0.34470
C2211       C  0.37140780  0.24362208  0.95412472     0.01730
C2212       C  0.37802660  0.25943578  0.96438520     0.07760
C2213       C  0.39448038  0.26555362  0.95486298    -0.05340
H2214       H  0.35903265  0.23466464  0.95754733     0.08420
H2215       H  0.40388965  0.27738709  0.95894777     0.09620
Cu2216     Cu  0.38183863  0.21888611  0.91855341     0.44170
Cu2217     Cu  0.41954618  0.25522991  0.91946129     0.41990
Cu2218     Cu  0.41894688  0.21885135  0.88165863     0.43880
N2219       N  0.38348360  0.19850893  0.89660063    -0.33990
N2220       N  0.39702223  0.19849595  0.88312361    -0.28250
C2221       C  0.39403605  0.18348081  0.87111494    -0.04350
C2222       C  0.37775436  0.17343779  0.87727957     0.07870
C2223       C  0.37150587  0.18350301  0.89354365     0.01660
H2224       H  0.40316306  0.18025317  0.85882746     0.09310
H2225       H  0.35917709  0.18030999  0.90261591     0.08390
N2226       N  0.43948063  0.24058820  0.88350423    -0.35440
N2227       N  0.43980245  0.25379328  0.89737813    -0.27620
C2228       C  0.45518542  0.26541515  0.89471639    -0.02860
C2229       C  0.46484120  0.25924904  0.87834772     0.05750
C2230       C  0.45461298  0.24347129  0.87162005     0.03840
H2231       H  0.45917929  0.27727470  0.90414081     0.08950
H2232       H  0.45809788  0.23452829  0.85923854     0.07780
C2233       C  0.71118227  0.34702010  0.00060341     0.03810
C2234       C  0.71819068  0.35442237  0.98303933    -0.12340
C2235       C  0.73233216  0.36895908  0.98304107     0.01310
C2236       C  0.73940442  0.37616169  0.00061928    -0.10860
C2237       C  0.73251165  0.36877524  0.01819543     0.03800
C2238       C  0.71843246  0.35416700  0.01818080    -0.10290
H2239       H  0.71265070  0.34889195  0.96943827     0.09400
H2240       H  0.75032041  0.38743621  0.00062010     0.06930
H2241       H  0.71303835  0.34847580  0.03177494     0.06770
C2242       C  0.65217949  0.28821005  0.00048536     0.03810
C2243       C  0.64500139  0.28095870  0.01804906    -0.12340
C2244       C  0.63032452  0.26695711  0.01803883     0.01310
C2245       C  0.62290753  0.26012903  0.00045765    -0.10860
C2246       C  0.63017066  0.26716871  0.98289346     0.03800
C2247       C  0.64477075  0.28124405  0.98290943    -0.10290
H2248       H  0.65072334  0.28629174  0.03165244     0.09400
H2249       H  0.61160274  0.24924496  0.00044324     0.06930
H2250       H  0.65034900  0.28675892  0.96931622     0.06770
C2251       C  0.50047336  0.34733171  0.78941672     0.03810
C2252       C  0.48294972  0.35474958  0.78227807    -0.12340
C2253       C  0.48297949  0.36936297  0.76821634     0.01310
C2254       C  0.50052234  0.37663114  0.76121574    -0.10860
C2255       C  0.51803508  0.36925686  0.76811558     0.03800
C2256       C  0.51801760  0.35464005  0.78216786    -0.10290
H2257       H  0.46931233  0.34909038  0.78755850     0.09400
H2258       H  0.50054570  0.38793637  0.75033221     0.06930
H2259       H  0.53163817  0.34916712  0.78763293     0.06770
C2260       C  0.50060354  0.28803777  0.84866002     0.03810
C2261       C  0.51814864  0.28075326  0.85588582    -0.12340
C2262       C  0.51815607  0.26664250  0.87045665     0.01310
C2263       C  0.50063334  0.25973323  0.87786062    -0.10860
C2264       C  0.48310275  0.26678459  0.87068053     0.03800
C2265       C  0.48308137  0.28088576  0.85611576    -0.10290
H2266       H  0.53177233  0.28623750  0.85039137     0.09400
H2267       H  0.50063903  0.24881847  0.88913594     0.06930
H2268       H  0.46944493  0.28618173  0.85051616     0.06770
N2269       N  0.60373408  0.06002769  0.74575031    -0.26610
N2270       N  0.61775978  0.06052871  0.75874724    -0.34470
C2271       C  0.62981066  0.04559088  0.75563670     0.01730
C2272       C  0.62305130  0.03529748  0.73991769     0.07760
C2273       C  0.60646334  0.04470077  0.73404121    -0.05340
H2274       H  0.64229987  0.04223900  0.76443093     0.08420
H2275       H  0.59692087  0.04054524  0.72234961     0.09620
Cu2276     Cu  0.61956296  0.08097442  0.78058181     0.44170
Cu2277     Cu  0.58137638  0.07999405  0.74476940     0.41990
Cu2278     Cu  0.58265098  0.11800458  0.78082724     0.43880
N2279       N  0.61807502  0.10284911  0.80101044    -0.33990
N2280       N  0.60460609  0.11636606  0.80106389    -0.28250
C2281       C  0.60762962  0.12832058  0.81609714    -0.04350
C2282       C  0.62386537  0.12208342  0.82611688     0.07870
C2283       C  0.63005454  0.10582877  0.81601970     0.01660
H2284       H  0.59854405  0.14061691  0.81934471     0.09310
H2285       H  0.64233364  0.09671599  0.81920091     0.08390
N2286       N  0.56186886  0.11621523  0.75938881    -0.35440
N2287       N  0.56124767  0.10218044  0.74636786    -0.27620
C2288       C  0.54574579  0.10482768  0.73494799    -0.02860
C2289       C  0.53634488  0.12137222  0.74101565     0.05750
C2290       C  0.54683804  0.12821884  0.75655770     0.03840
H2291       H  0.54152396  0.09530698  0.72324567     0.08950
H2292       H  0.54359549  0.14074074  0.76539132     0.07780
N2293       N  0.74216737  0.11597155  0.93930308    -0.26610
N2294       N  0.75534889  0.10212328  0.93960069    -0.34470
C2295       C  0.76693369  0.10475680  0.95499993     0.01730
C2296       C  0.76076775  0.12108639  0.96469790     0.07760
C2297       C  0.74502841  0.12782558  0.95448050    -0.05340
H2298       H  0.77876473  0.09533718  0.95897499     0.08420
H2299       H  0.73610165  0.14018770  0.95800099     0.09620
Cu2300     Cu  0.75678868  0.08010342  0.91932682     0.44170
Cu2301     Cu  0.72052343  0.11775159  0.91871953     0.41990
Cu2302     Cu  0.72055972  0.08074043  0.88155862     0.43880
N2303       N  0.75548882  0.05993803  0.89719831    -0.33990
N2304       N  0.74232640  0.06020601  0.88332086    -0.28250
C2305       C  0.74528931  0.04505398  0.87144964    -0.04350
C2306       C  0.76107688  0.03489983  0.87820271     0.07870
C2307       C  0.76715593  0.04460614  0.89456206     0.01660
H2308       H  0.73639276  0.04149521  0.85907102     0.09310
H2309       H  0.77896970  0.04066342  0.90402072     0.08390
N2310       N  0.70024153  0.10272808  0.88320870    -0.35440
N2311       N  0.70024645  0.11621198  0.89676170    -0.27620
C2312       C  0.68526999  0.12821244  0.89380085    -0.02860
C2313       C  0.67522239  0.12204635  0.87752309     0.05750
C2314       C  0.68524983  0.10578405  0.87124422     0.03840
H2315       H  0.68207026  0.14049546  0.90294965     0.08950
H2316       H  0.68202962  0.09671010  0.85890949     0.07780
C2317       C  0.65765050  0.13087406  0.86877296     0.03810
C2318       C  0.64919604  0.14747887  0.87696482    -0.12340
C2319       C  0.63260259  0.15591609  0.86881488     0.01310
C2320       C  0.62448810  0.14745360  0.85219647    -0.10860
C2321       C  0.63264266  0.13086738  0.84372155     0.03800
C2322       C  0.64921884  0.12272788  0.85215239    -0.10290
H2323       H  0.65554264  0.15385252  0.88971697     0.09400
H2324       H  0.61177306  0.15380326  0.84583100     0.06930
H2325       H  0.65557691  0.11000452  0.84575155     0.06770
N2326       N  0.60353484  0.25392084  0.93961875    -0.26610
N2327       N  0.61747735  0.24083787  0.93925460    -0.34470
C2328       C  0.62937361  0.24386460  0.95434645     0.01730
C2329       C  0.62258055  0.25961048  0.96458829     0.07760
C2330       C  0.60615358  0.26559572  0.95498829    -0.05340
H2331       H  0.64179030  0.23501851  0.95781900     0.08420
H2332       H  0.59665096  0.27735589  0.95902293     0.09620
Cu2333     Cu  0.61933093  0.21903991  0.91873279     0.44170
Cu2334     Cu  0.58141495  0.25510141  0.91944318     0.41990
Cu2335     Cu  0.58237532  0.21878764  0.88164468     0.43880
N2336       N  0.61786812  0.19860652  0.89682518    -0.33990
N2337       N  0.60439294  0.19851923  0.88330112    -0.28250
C2338       C  0.60747514  0.18348479  0.87134870    -0.04350
C2339       C  0.62374896  0.17350462  0.87759522     0.07870
C2340       C  0.62989380  0.18362999  0.89385072     0.01660
H2341       H  0.59840954  0.18020795  0.85903944     0.09310
H2342       H  0.64218504  0.18048507  0.90296470     0.08390
N2343       N  0.56175382  0.24047910  0.88334405    -0.35440
N2344       N  0.56132468  0.25364426  0.89725273    -0.27620
C2345       C  0.54596276  0.26524238  0.89454865    -0.02860
C2346       C  0.53642538  0.25913494  0.87809926     0.05750
C2347       C  0.54669882  0.24338183  0.87138119     0.03840
H2348       H  0.54189668  0.27704807  0.90400552     0.08950
H2349       H  0.54328246  0.23446052  0.85896511     0.07780
C2350       C  0.78969316  0.15053173  0.00050468     0.03810
C2351       C  0.78250598  0.14317645  0.01807270    -0.12340
C2352       C  0.76838214  0.12863127  0.01807262     0.01310
C2353       C  0.76133083  0.12139716  0.00052830    -0.10860
C2354       C  0.76829996  0.12870156  0.98297858     0.03800
C2355       C  0.78244711  0.14321646  0.98295381    -0.10290
H2356       H  0.78778829  0.14883495  0.03172126     0.09400
H2357       H  0.75038324  0.11015198  0.00053250     0.06930
H2358       H  0.78796591  0.14862059  0.96929427     0.06770
C2359       C  0.84896580  0.20974339  0.00028292     0.03810
C2360       C  0.85634064  0.21689351  0.98270668    -0.12340
C2361       C  0.87088343  0.23102635  0.98269105     0.01310
C2362       C  0.87811679  0.23808804  0.00024331    -0.10860
C2363       C  0.87076412  0.23118442  0.01780917     0.03800
C2364       C  0.85622857  0.21705621  0.01783105    -0.10290
H2365       H  0.85095556  0.21131619  0.96906535     0.09400
H2366       H  0.88936456  0.24903089  0.00023205     0.06930
H2367       H  0.85051224  0.21185310  0.03148796     0.06770
C2368       C  0.00066621  0.15035194  0.78935934     0.03810
C2369       C  0.01813925  0.14199388  0.78302768    -0.12340
C2370       C  0.01815401  0.12782672  0.76849948     0.01310
C2371       C  0.00067383  0.12125434  0.76077557    -0.10860
C2372       C  0.98319954  0.12916131  0.76713310     0.03800
C2373       C  0.98320846  0.14394085  0.78103166    -0.10290
H2374       H  0.03176263  0.14641653  0.78936455     0.09400
H2375       H  0.00067210  0.11004187  0.74978113     0.06930
H2376       H  0.96958413  0.15034631  0.78534339     0.06770
C2377       C  0.00065922  0.20997144  0.84903132     0.03810
C2378       C  0.01813676  0.21633545  0.85736660    -0.12340
C2379       C  0.01815421  0.23083311  0.87156591     0.01310
C2380       C  0.00066616  0.23848925  0.87819988    -0.10860
C2381       C  0.98318305  0.23211182  0.87030703     0.03800
C2382       C  0.98319660  0.21824952  0.85548948    -0.10290
H2383       H  0.03176437  0.21003842  0.85291133     0.09400
H2384       H  0.00066612  0.24946211  0.88943290     0.06930
H2385       H  0.96956986  0.21392999  0.84908781     0.06770
N2386       N  0.74567992  0.43817045  0.89755064    -0.26610
N2387       N  0.75891029  0.43780020  0.88372067    -0.34470
C2388       C  0.75616540  0.45296458  0.87184752     0.01730
C2389       C  0.74044959  0.46326710  0.87853906     0.07760
C2390       C  0.73417428  0.45361864  0.89487206    -0.05340
H2391       H  0.76515332  0.45641366  0.85949437     0.08420
H2392       H  0.72231751  0.45765943  0.90425837     0.09620
Cu2393     Cu  0.78047601  0.41713878  0.88194172     0.44170
Cu2394     Cu  0.74410733  0.41788450  0.91959973     0.41990
Cu2395     Cu  0.78030367  0.37997851  0.91878451     0.43880
N2396       N  0.80071156  0.39514772  0.88337257    -0.33990
N2397       N  0.80067505  0.38157067  0.89681183    -0.28250
C2398       C  0.81564030  0.36957788  0.89369718    -0.04350
C2399       C  0.82569266  0.37586688  0.87743694     0.07870
C2400       C  0.81568538  0.39217868  0.87134093     0.01660
H2401       H  0.81882335  0.35721381  0.90272044     0.09310
H2402       H  0.81890860  0.40134633  0.85908271     0.08390
N2403       N  0.75853900  0.38177589  0.93935265    -0.35440
N2404       N  0.74540888  0.39568023  0.93973070    -0.27620
C2405       C  0.73378526  0.39301035  0.95512224    -0.02860
C2406       C  0.73985680  0.37660107  0.96473456     0.05750
C2407       C  0.75559360  0.36986199  0.95446563     0.03840
H2408       H  0.72200363  0.40247443  0.95916889     0.08950
H2409       H  0.76448206  0.35746446  0.95792859     0.07780
N2410       N  0.89649494  0.38202606  0.80079934    -0.26610
N2411       N  0.88283543  0.39537348  0.80072036    -0.34470
C2412       C  0.87076492  0.39219450  0.81564564     0.01730
C2413       C  0.87704453  0.37599697  0.82574786     0.07760
C2414       C  0.89345344  0.36998880  0.81579010    -0.05340
H2415       H  0.85835967  0.40115883  0.81878964     0.08420
H2416       H  0.90267247  0.35781801  0.81910740     0.09620
Cu2417     Cu  0.88110071  0.41746580  0.78047266     0.44170
Cu2418     Cu  0.91885687  0.38079177  0.78067772     0.41990
Cu2419     Cu  0.91921748  0.41868706  0.74473890     0.43880
N2420       N  0.88290114  0.43810203  0.75874006    -0.33990
N2421       N  0.89696914  0.43854661  0.74577442    -0.28250
C2422       C  0.89444795  0.45387685  0.73408471    -0.04350
C2423       C  0.87794417  0.46340722  0.73991462     0.07870
C2424       C  0.87098971  0.45315562  0.75560738     0.01660
H2425       H  0.90409604  0.45794994  0.72244095     0.09310
H2426       H  0.85847801  0.45661247  0.76435213     0.08390
N2427       N  0.93977331  0.39709238  0.74594888    -0.35440
N2428       N  0.93970216  0.38314766  0.75905895    -0.27620
C2429       C  0.95503660  0.37158934  0.75595630    -0.02860
C2430       C  0.96504691  0.37859154  0.74009687     0.05750
C2431       C  0.95508980  0.39480469  0.73416247     0.03840
H2432       H  0.95874530  0.35915649  0.76470984     0.08950
H2433       H  0.95879886  0.40436468  0.72232605     0.07780
C2434       C  0.86823146  0.36714540  0.84335845     0.03810
C2435       C  0.87635614  0.35051166  0.85176137    -0.12340
C2436       C  0.86823941  0.34203521  0.86839448     0.01310
C2437       C  0.85168817  0.35047927  0.87662244    -0.10860
C2438       C  0.84324302  0.36709800  0.86853054     0.03800
C2439       C  0.85166201  0.37528496  0.85189602    -0.10290
H2440       H  0.88904181  0.34413874  0.84532349     0.09400
H2441       H  0.84535947  0.34409388  0.88937628     0.06930
H2442       H  0.84530902  0.38804298  0.84558170     0.06770
N2443       N  0.93989532  0.24491763  0.89706315    -0.26610
N2444       N  0.93924398  0.25787386  0.88298717    -0.34470
C2445       C  0.95433535  0.25507366  0.87101423     0.01730
C2446       C  0.96490230  0.23963342  0.87794110     0.07760
C2447       C  0.95546759  0.23357862  0.89448060    -0.05340
H2448       H  0.95756477  0.26385623  0.85845655     0.08420
H2449       H  0.95970924  0.22193566  0.90403999     0.09620
Cu2450     Cu  0.91833761  0.27920417  0.88115206     0.44170
Cu2451     Cu  0.91975816  0.24331578  0.91925940     0.41990
Cu2452     Cu  0.88143833  0.27895376  0.91835279     0.43880
N2453       N  0.89631074  0.29938977  0.88282842    -0.33990
N2454       N  0.88285210  0.29933515  0.89638829    -0.28250
C2455       C  0.87085826  0.31433128  0.89342973    -0.04350
C2456       C  0.87702304  0.32442253  0.87714969     0.07870
C2457       C  0.89326135  0.31440720  0.87087653     0.01660
H2458       H  0.85859199  0.31752183  0.90258420     0.09310
H2459       H  0.90234125  0.31766442  0.85856213     0.08390
N2460       N  0.88345459  0.25725801  0.93895792    -0.35440
N2461       N  0.89754665  0.24433834  0.93940663    -0.27620
C2462       C  0.89500696  0.23272494  0.95482962    -0.02860
C2463       C  0.87847807  0.23857980  0.96437604     0.05750
C2464       C  0.87153863  0.25417904  0.95404029     0.03840
H2465       H  0.90462539  0.22109416  0.95893375     0.08950
H2466       H  0.85900741  0.26289981  0.95744686     0.07780
C2467       C  0.65218706  0.20949824  0.50059260     0.03810
C2468       C  0.64487309  0.21656780  0.48302670    -0.12340
C2469       C  0.63034977  0.23069993  0.48303103     0.01310
C2470       C  0.62307275  0.23769261  0.50061574    -0.10860
C2471       C  0.63038450  0.23075654  0.51818926     0.03800
C2472       C  0.64497738  0.21669411  0.51817128    -0.10290
H2473       H  0.65046347  0.21108563  0.46942348     0.09400
H2474       H  0.61182849  0.24861501  0.50062433     0.06930
H2475       H  0.65063238  0.21129427  0.53176483     0.06770
C2476       C  0.71110983  0.15069505  0.50044655     0.03810
C2477       C  0.71828934  0.14348982  0.51800986    -0.12340
C2478       C  0.73237795  0.12892662  0.51799974     0.01310
C2479       C  0.73935173  0.12162739  0.50042133    -0.10860
C2480       C  0.73234294  0.12886819  0.48285235     0.03800
C2481       C  0.71819314  0.14337630  0.48286722    -0.10290
H2482       H  0.71285216  0.14912148  0.53161442     0.09400
H2483       H  0.75028085  0.11038827  0.50041396     0.06930
H2484       H  0.71270458  0.14894412  0.46927311     0.06770
C2485       C  0.00054234  0.34779912  0.71175248     0.03810
C2486       C  0.01783983  0.35339215  0.72120748    -0.12340
C2487       C  0.01807183  0.36882378  0.73442262     0.01310
C2488       C  0.00074535  0.37727477  0.74032674    -0.10860
C2489       C  0.98330826  0.37111206  0.73229910     0.03800
C2490       C  0.98331579  0.35739993  0.71730525    -0.10290
H2491       H  0.03131391  0.34600718  0.71846878     0.09400
H2492       H  0.00082513  0.38856299  0.75124713     0.06930
H2493       H  0.96976845  0.35452676  0.71014829     0.06770
C2494       C  0.00041915  0.28735175  0.65123045     0.03810
C2495       C  0.01761780  0.27762573  0.64584908    -0.12340
C2496       C  0.01778412  0.26440500  0.63042482     0.01310
C2497       C  0.00045248  0.25882580  0.62175357    -0.10860
C2498       C  0.98309429  0.26718876  0.62768690     0.03800
C2499       C  0.98321398  0.28214754  0.64142220    -0.10290
H2500       H  0.03105708  0.28023447  0.65335638     0.09400
H2501       H  0.00046204  0.24789898  0.61047310     0.06930
H2502       H  0.96974615  0.28950838  0.64425772     0.06770
C2503       C  0.78946411  0.34742088  0.50046154     0.03810
C2504       C  0.78259283  0.35490619  0.48290362    -0.12340
C2505       C  0.76842622  0.36937346  0.48292222     0.01310
C2506       C  0.76130323  0.37653052  0.50049161    -0.10860
C2507       C  0.76814164  0.36910412  0.51804281     0.03800
C2508       C  0.78212556  0.35446179  0.51803133    -0.10290
H2509       H  0.78817870  0.34941944  0.46929918     0.09400
H2510       H  0.75040370  0.38779838  0.50050513     0.06930
H2511       H  0.78743247  0.34871356  0.53162439     0.06770
C2512       C  0.84788657  0.28832459  0.50043019     0.03810
C2513       C  0.85468285  0.28077434  0.51798522    -0.12340
C2514       C  0.86907159  0.26653804  0.51796562     0.01310
C2515       C  0.87649262  0.25966435  0.50041962    -0.10860
C2516       C  0.86959825  0.26702125  0.48287516     0.03800
C2517       C  0.85539227  0.28144428  0.48286680    -0.10290
H2518       H  0.84896571  0.28612958  0.53158767     0.09400
H2519       H  0.88761828  0.24861864  0.50041904     0.06930
H2520       H  0.85011601  0.28721196  0.46927037     0.06770
N2521       N  0.74549647  0.05981585  0.60356082    -0.26610
N2522       N  0.75867112  0.06022046  0.61742478    -0.34470
C2523       C  0.75579607  0.04513185  0.62937325     0.01730
C2524       C  0.74005680  0.03484586  0.62269238     0.07760
C2525       C  0.73390545  0.04441591  0.60628714    -0.05340
H2526       H  0.76473056  0.04170409  0.64175178     0.08420
H2527       H  0.72208311  0.04034665  0.59687729     0.09620
Cu2528     Cu  0.78037941  0.08077302  0.61913454     0.44170
Cu2529     Cu  0.74407325  0.07997313  0.58139567     0.41990
Cu2530     Cu  0.78038734  0.11773677  0.58209301     0.43880
N2531       N  0.80073028  0.10268631  0.61753719    -0.33990
N2532       N  0.80074630  0.11618396  0.60401915    -0.28250
C2533       C  0.81575535  0.12816773  0.60702782    -0.04350
C2534       C  0.82578596  0.12196113  0.62329973     0.07870
C2535       C  0.81572114  0.10570019  0.62951967     0.01660
H2536       H  0.81897810  0.14047389  0.59792582     0.09310
H2537       H  0.81890593  0.09660759  0.64183372     0.08390
N2538       N  0.75861299  0.11602493  0.56158285    -0.35440
N2539       N  0.74542587  0.10215003  0.56123872    -0.27620
C2540       C  0.73377943  0.10486643  0.54589711    -0.02860
C2541       C  0.73989215  0.12128421  0.53629024     0.05750
C2542       C  0.75568655  0.12796877  0.54650017     0.03840
H2543       H  0.72195056  0.09543104  0.54188072     0.08950
H2544       H  0.76462522  0.14034765  0.54301759     0.07780
N2545       N  0.93933591  0.11637486  0.74130983    -0.26610
N2546       N  0.93995917  0.10236862  0.75433782    -0.34470
C2547       C  0.95549310  0.10501174  0.76571390     0.01730
C2548       C  0.96493180  0.12152243  0.75960596     0.07760
C2549       C  0.95441492  0.12836739  0.74409219    -0.05340
H2550       H  0.95970642  0.09551138  0.77741648     0.08420
H2551       H  0.95766702  0.14087911  0.73525409     0.09620
Cu2552     Cu  0.91981787  0.08021792  0.75600413     0.44170
Cu2553     Cu  0.91845505  0.11806746  0.71995875     0.41990
Cu2554     Cu  0.88151018  0.08087407  0.72030943     0.43880
N2555       N  0.89753433  0.06018050  0.75518938    -0.33990
N2556       N  0.88345824  0.06051762  0.74224337    -0.28250
C2557       C  0.87149101  0.04551700  0.74549746    -0.04350
C2558       C  0.87836656  0.03537863  0.76125716     0.07870
C2559       C  0.89493052  0.04492473  0.76700018     0.01660
H2560       H  0.85898082  0.04201514  0.73677720     0.09310
H2561       H  0.90455039  0.04091092  0.77866531     0.08390
N2562       N  0.88295774  0.10276932  0.69986108    -0.35440
N2563       N  0.89643021  0.11631624  0.69979417    -0.27620
C2564       C  0.89338677  0.12826373  0.68477969    -0.02860
C2565       C  0.87713568  0.12200767  0.67477546     0.05750
C2566       C  0.87095469  0.10573657  0.68486670     0.03840
H2567       H  0.90247584  0.14057256  0.68153099     0.08950
H2568       H  0.85866280  0.09660923  0.68168681     0.07780
C2569       C  0.86835590  0.13079850  0.65718594     0.03810
C2570       C  0.85178113  0.12262224  0.64872363    -0.12340
C2571       C  0.84335670  0.13077291  0.63211544     0.01310
C2572       C  0.85181657  0.14738918  0.62397259    -0.10860
C2573       C  0.86840159  0.15586703  0.63213698     0.03800
C2574       C  0.87650969  0.14742865  0.64874896    -0.10290
H2575       H  0.84542298  0.10987201  0.65508668     0.09400
H2576       H  0.84548095  0.15372558  0.61121762     0.06930
H2577       H  0.88920704  0.15384455  0.65512893     0.06770
N2578       N  0.93933041  0.25373177  0.60194489    -0.26610
N2579       N  0.93952029  0.24043399  0.61571406    -0.34470
C2580       C  0.95496100  0.24347732  0.62713221     0.01730
C2581       C  0.96477809  0.25949233  0.62025538     0.07760
C2582       C  0.95459148  0.26560478  0.60423913    -0.05340
H2583       H  0.95887780  0.23456814  0.63939101     0.08420
H2584       H  0.95813173  0.27758107  0.59479142     0.09620
Cu2585     Cu  0.91895629  0.21858430  0.61818184     0.44170
Cu2586     Cu  0.91857975  0.25495250  0.58050426     0.41990
Cu2587     Cu  0.88095057  0.21873131  0.58203718     0.43880
N2588       N  0.89668778  0.19836801  0.61720729    -0.33990
N2589       N  0.88291144  0.19849236  0.60398671    -0.28250
C2590       C  0.87083871  0.18360452  0.60720683    -0.04350
C2591       C  0.87723218  0.17345481  0.62331240     0.07870
C2592       C  0.89372112  0.18335005  0.62923116     0.01660
H2593       H  0.85834519  0.18054335  0.59833293     0.09310
H2594       H  0.90302486  0.17997674  0.64132673     0.08390
N2595       N  0.88225678  0.24041320  0.56145419    -0.35440
N2596       N  0.89612631  0.25358357  0.56086461    -0.27620
C2597       C  0.89325219  0.26520055  0.54554940    -0.02860
C2598       C  0.87672872  0.25908935  0.53621566     0.05750
C2599       C  0.87013083  0.24331657  0.54653439     0.03840
H2600       H  0.90268105  0.27697482  0.54133957     0.08950
H2601       H  0.85772959  0.23435937  0.54321518     0.07780
C2602       C  0.00057018  0.71018137  0.34879798     0.03810
C2603       C  0.98302066  0.71742828  0.35595017    -0.12340
C2604       C  0.98300056  0.73148378  0.37059535     0.01310
C2605       C  0.00053725  0.73836593  0.37801791    -0.10860
C2606       C  0.01809171  0.73131297  0.37081042     0.03800
C2607       C  0.01810446  0.71718723  0.35623314    -0.10290
H2608       H  0.96944979  0.71204517  0.35023718     0.09400
H2609       H  0.00052410  0.74926888  0.38931800     0.06930
H2610       H  0.03168785  0.71166193  0.35069519     0.06770
C2611       C  0.00065593  0.65121126  0.28982925     0.03810
C2612       C  0.01820655  0.64382597  0.28281671    -0.12340
C2613       C  0.01822656  0.62923097  0.26870622     0.01310
C2614       C  0.00068070  0.62196137  0.26167333    -0.10860
C2615       C  0.98312566  0.62933182  0.26856521     0.03800
C2616       C  0.98312050  0.64399189  0.28260535    -0.10290
H2617       H  0.03177804  0.64940154  0.28834104     0.09400
H2618       H  0.00068827  0.61064794  0.25078493     0.06930
H2619       H  0.96953899  0.64967211  0.28798860     0.06770
C2620       C  0.78953059  0.49929789  0.34895158     0.03810
C2621       C  0.78259797  0.48171264  0.35645095    -0.12340
C2622       C  0.76834363  0.48166513  0.37086730     0.01310
C2623       C  0.76113773  0.49919370  0.37800128    -0.10860
C2624       C  0.76797950  0.51677307  0.37062356     0.03800
C2625       C  0.78206262  0.51682784  0.35603864    -0.10290
H2626       H  0.78814963  0.46810676  0.35095636     0.09400
H2627       H  0.75017885  0.49915350  0.38923390     0.06930
H2628       H  0.78740554  0.53047458  0.35042807     0.06770
C2629       C  0.84859724  0.49958840  0.28981512     0.03810
C2630       C  0.85578501  0.51715504  0.28250814    -0.12340
C2631       C  0.87034156  0.51715173  0.26838907     0.01310
C2632       C  0.87756722  0.49959100  0.26134767    -0.10860
C2633       C  0.87031879  0.48203595  0.26838973     0.03800
C2634       C  0.85594734  0.48203169  0.28268262    -0.10290
H2635       H  0.85026374  0.53077827  0.28798921     0.09400
H2636       H  0.88878315  0.49958674  0.25037263     0.06930
H2637       H  0.85039626  0.46840501  0.28813949     0.06770
N2638       N  0.80138953  0.60286448  0.11785300    -0.26610
N2639       N  0.80139125  0.61637268  0.10434057    -0.34470
C2640       C  0.81640027  0.62836557  0.10732053     0.01730
C2641       C  0.82646632  0.62217405  0.12357004     0.07760
C2642       C  0.81641099  0.60589893  0.12980848    -0.05340
H2643       H  0.81960115  0.64067070  0.09820912     0.08420
H2644       H  0.81963582  0.59680812  0.14211354     0.09620
Cu2645     Cu  0.78104888  0.61796881  0.08241894     0.44170
Cu2646     Cu  0.78098301  0.58089829  0.11944407     0.41990
Cu2647     Cu  0.74474692  0.58021080  0.08158660     0.43880
N2648       N  0.75935323  0.61631349  0.06184143    -0.33990
N2649       N  0.74618262  0.60242455  0.06141543    -0.28250
C2650       C  0.73460746  0.60517257  0.04602187    -0.04350
C2651       C  0.74074340  0.62162850  0.03648013     0.07870
C2652       C  0.75648192  0.62830015  0.04677933     0.01660
H2653       H  0.72279897  0.59574309  0.04193234     0.09310
H2654       H  0.76542703  0.64069436  0.04336842     0.08390
N2655       N  0.74601496  0.56001938  0.10379082    -0.35440
N2656       N  0.75915500  0.56036037  0.11769434    -0.27620
C2657       C  0.75615609  0.54526599  0.12963009    -0.02860
C2658       C  0.74036651  0.53504259  0.12291668     0.05750
C2659       C  0.73433649  0.54466807  0.10648552     0.03840
H2660       H  0.76504465  0.54178147  0.14202553     0.08950
H2661       H  0.72253403  0.54065631  0.09702635     0.07780
N2662       N  0.93996380  0.74073387  0.11709426    -0.26610
N2663       N  0.94033954  0.75382870  0.10313423    -0.34470
C2664       C  0.95569894  0.76549075  0.10573607     0.01730
C2665       C  0.96530175  0.75948226  0.12216395     0.07760
C2666       C  0.95505882  0.74374033  0.12898589    -0.05340
H2667       H  0.95971345  0.77726867  0.09622721     0.08420
H2668       H  0.95851404  0.73490673  0.14143731     0.09620
Cu2669     Cu  0.92020022  0.75508232  0.08101134     0.44170
Cu2670     Cu  0.91936115  0.71899244  0.11897775     0.41990
Cu2671     Cu  0.88249699  0.71873293  0.08179893     0.43880
N2672       N  0.89807602  0.75369172  0.06088409    -0.33990
N2673       N  0.88422975  0.74047822  0.06123094    -0.28250
C2674       C  0.87227941  0.74343545  0.04617567    -0.04350
C2675       C  0.87893405  0.75928312  0.03599904     0.07870
C2676       C  0.89533544  0.76539268  0.04558202     0.01660
H2677       H  0.85989176  0.73451267  0.04271640     0.09310
H2678       H  0.90472707  0.77727342  0.04159491     0.08390
N2679       N  0.88395077  0.69852457  0.10389462    -0.35440
N2680       N  0.89737947  0.69862141  0.11746535    -0.27620
C2681       C  0.89427631  0.68369439  0.12954331    -0.02860
C2682       C  0.87803921  0.67359452  0.12332904     0.05750
C2683       C  0.87193737  0.68353896  0.10696270     0.03840
H2684       H  0.90329780  0.68056662  0.14191532     0.08950
H2685       H  0.85968762  0.68026269  0.09782662     0.07780
C2686       C  0.86917687  0.65604872  0.13220966     0.03810
C2687       C  0.85256179  0.64757711  0.12409777    -0.12340
C2688       C  0.84407033  0.63100963  0.13232734     0.01310
C2689       C  0.85249462  0.62292766  0.14897212    -0.10860
C2690       C  0.86910655  0.63109871  0.15738484     0.03800
C2691       C  0.87729188  0.64765643  0.14885408    -0.10290
H2692       H  0.84622189  0.65389802  0.11133399     0.09400
H2693       H  0.84609543  0.61023298  0.15540227     0.06930
H2694       H  0.89003445  0.65402749  0.15518752     0.06770
N2695       N  0.93986278  0.60256033  0.25549740    -0.26610
N2696       N  0.93952609  0.61644946  0.24232330    -0.34470
C2697       C  0.95462600  0.62837629  0.24525080     0.01730
C2698       C  0.96485218  0.62166487  0.26102131     0.07760
C2699       C  0.95522441  0.60525160  0.26712672    -0.05340
H2700       H  0.95810413  0.64076906  0.23633067     0.08420
H2701       H  0.95922663  0.59581535  0.27895469     0.09620
Cu2702     Cu  0.91901281  0.61823228  0.22053673     0.44170
Cu2703     Cu  0.91964010  0.58040913  0.25690463     0.41990
Cu2704     Cu  0.88198096  0.58128871  0.22054691     0.43880
N2705       N  0.89711641  0.61667041  0.20012411    -0.33990
N2706       N  0.88360581  0.60316389  0.20014434    -0.28250
C2707       C  0.87165454  0.60612860  0.18511814    -0.04350
C2708       C  0.87788264  0.62236491  0.17501939     0.07870
C2709       C  0.89413077  0.62861176  0.18507238     0.01660
H2710       H  0.85935993  0.59701077  0.18192528     0.09310
H2711       H  0.90323537  0.64091156  0.18182818     0.08390
N2712       N  0.88354238  0.56076237  0.24230510    -0.35440
N2713       N  0.89737019  0.56032470  0.25551359    -0.27620
C2714       C  0.89453611  0.54495475  0.26712543    -0.02860
C2715       C  0.87809494  0.53544076  0.26095755     0.05750
C2716       C  0.87151834  0.54572834  0.24517580     0.03840
H2717       H  0.90390826  0.54085111  0.27896034     0.08950
H2718       H  0.85916292  0.54232719  0.23619863     0.07780
C2719       C  0.00046849  0.15051888  0.21142124     0.03810
C2720       C  0.01798327  0.14360493  0.21912377    -0.12340
C2721       C  0.01797132  0.12900145  0.23319477     0.01310
C2722       C  0.00045409  0.12147643  0.23995658    -0.10860
C2723       C  0.98294583  0.12841639  0.23263728     0.03800
C2724       C  0.98294596  0.14274438  0.21829093    -0.10290
H2725       H  0.03162906  0.14957890  0.21423954     0.09400
H2726       H  0.00044584  0.11027240  0.25094482     0.06930
H2727       H  0.96930427  0.14769409  0.21240794     0.06770
C2728       C  0.00044349  0.20989312  0.15191958     0.03810
C2729       C  0.01796478  0.21758857  0.14495604    -0.12340
C2730       C  0.01797198  0.23163839  0.13033616     0.01310
C2731       C  0.00046236  0.23840406  0.12284912    -0.10860
C2732       C  0.98293770  0.23111553  0.12985567     0.03800
C2733       C  0.98292492  0.21677088  0.14419197    -0.10290
H2734       H  0.03160527  0.21271921  0.15090948     0.09400
H2735       H  0.00047281  0.24938442  0.11163777     0.06930
H2736       H  0.96927580  0.21089725  0.14918574     0.06770
N2737       N  0.74562338  0.43816179  0.10367546    -0.26610
N2738       N  0.75882138  0.43789272  0.11752344    -0.34470
C2739       C  0.75590391  0.45306219  0.12939459     0.01730
C2740       C  0.74010588  0.46324917  0.12269775     0.07760
C2741       C  0.73398171  0.45352518  0.10634481    -0.05340
H2742       H  0.76483355  0.45660548  0.14175356     0.08420
H2743       H  0.72213882  0.45747075  0.09692421     0.09620
Cu2744     Cu  0.78057608  0.41729488  0.11930868     0.44170
Cu2745     Cu  0.74424400  0.41785901  0.08158544     0.41990
Cu2746     Cu  0.78053085  0.38006183  0.08239623     0.43880
N2747       N  0.80091651  0.39526735  0.11784183    -0.33990
N2748       N  0.80089549  0.38169426  0.10437378    -0.28250
C2749       C  0.81586464  0.36969301  0.10744275    -0.04350
C2750       C  0.82592702  0.37594561  0.12370184     0.07870
C2751       C  0.81590350  0.39226543  0.12984722     0.01660
H2752       H  0.81904855  0.35733796  0.09838624     0.09310
H2753       H  0.81913240  0.40141026  0.14212819     0.08390
N2754       N  0.75875455  0.38172780  0.06183314    -0.35440
N2755       N  0.74560256  0.39561091  0.06145747    -0.27620
C2756       C  0.73397047  0.39287171  0.04609834    -0.02860
C2757       C  0.74004119  0.37642992  0.03650524     0.05750
C2758       C  0.75580637  0.36975404  0.04674930     0.03840
H2759       H  0.72217534  0.40230949  0.04205989     0.08950
H2760       H  0.76471456  0.35736325  0.04328394     0.07780
N2761       N  0.93940669  0.39682293  0.25571806    -0.26610
N2762       N  0.93943632  0.38311185  0.24234010    -0.34470
C2763       C  0.95474172  0.37149421  0.24526539     0.01730
C2764       C  0.96466620  0.37818925  0.26127252     0.07760
C2765       C  0.95466850  0.39429858  0.26751442    -0.05340
H2766       H  0.95852482  0.35926239  0.23624236     0.08420
H2767       H  0.95836103  0.40366797  0.27951381     0.09620
Cu2768     Cu  0.91893626  0.38104551  0.22044911     0.44170
Cu2769     Cu  0.91891758  0.41856860  0.25704601     0.41990
Cu2770     Cu  0.88139503  0.41758032  0.22053677     0.43880
N2771       N  0.89677842  0.38216752  0.20017702    -0.33990
N2772       N  0.88311100  0.39549707  0.20025432    -0.28250
C2773       C  0.87105910  0.39227604  0.18534212    -0.04350
C2774       C  0.87736428  0.37606363  0.17524073     0.07870
C2775       C  0.89377488  0.37009381  0.18519185     0.01660
H2776       H  0.85864203  0.40121767  0.18221449     0.09310
H2777       H  0.90299398  0.35791033  0.18188815     0.08390
N2778       N  0.88304738  0.43829278  0.24222429    -0.35440
N2779       N  0.89682527  0.43865500  0.25548789    -0.27620
C2780       C  0.89415962  0.45406499  0.26707476    -0.02860
C2781       C  0.87789149  0.46373727  0.26083950     0.05750
C2782       C  0.87120895  0.45347311  0.24504328     0.03840
H2783       H  0.90353960  0.45808088  0.27894573     0.08950
H2784       H  0.85889820  0.45696623  0.23605453     0.07780
C2785       C  0.86853382  0.34204583  0.13257696     0.03810
C2786       C  0.85195165  0.35050321  0.12441296    -0.12340
C2787       C  0.84350283  0.36713283  0.13254838     0.01310
C2788       C  0.85195297  0.37530665  0.14916677    -0.10860
C2789       C  0.86854169  0.36717047  0.15764946     0.03800
C2790       C  0.87666664  0.35052761  0.14920605    -0.10290
H2791       H  0.84560490  0.34412925  0.11166411     0.09400
H2792       H  0.84560353  0.38806677  0.15550583     0.06930
H2793       H  0.88936534  0.34415664  0.15560102     0.06770
N2794       N  0.93956801  0.24417770  0.10339331    -0.26610
N2795       N  0.93933511  0.25740703  0.11724582    -0.34470
C2796       C  0.95452318  0.25450447  0.12903375     0.01730
C2797       C  0.96466732  0.23868338  0.12226975     0.07760
C2798       C  0.95491261  0.23252202  0.10597272    -0.05340
H2799       H  0.95809409  0.26344438  0.14139267     0.08420
H2800       H  0.95881806  0.22065110  0.09652964     0.09620
Cu2801     Cu  0.91874058  0.27914517  0.11917306     0.44170
Cu2802     Cu  0.91929214  0.24278739  0.08140735     0.41990
Cu2803     Cu  0.88152510  0.27903177  0.08232717     0.43880
N2804       N  0.89667737  0.29942952  0.11781208    -0.33990
N2805       N  0.88311147  0.29937236  0.10437526    -0.28250
C2806       C  0.87109919  0.31433506  0.10748478    -0.04350
C2807       C  0.87733731  0.32443253  0.12373625     0.07870
C2808       C  0.89365881  0.31443596  0.12983927     0.01660
H2809       H  0.85875899  0.31750053  0.09844600     0.09310
H2810       H  0.90280576  0.31771128  0.14208995     0.08390
N2811       N  0.88334774  0.25736146  0.06160946    -0.35440
N2812       N  0.89723375  0.24421722  0.06122551    -0.27620
C2813       C  0.89465677  0.23264961  0.04577649    -0.02860
C2814       C  0.87833045  0.23877206  0.03611141     0.05750
C2815       C  0.87152301  0.25447439  0.04642457     0.03840
H2816       H  0.90411698  0.22085430  0.04174338     0.08950
H2817       H  0.85913567  0.26336322  0.04295735     0.07780
C2818       C  0.00042942  0.34772628  0.28934097     0.03810
C2819       C  0.01782799  0.35385711  0.28059205    -0.12340
C2820       C  0.01787382  0.36890532  0.26698848     0.01310
C2821       C  0.00042344  0.37707327  0.26095431    -0.10860
C2822       C  0.98296408  0.37063901  0.26884608     0.03800
C2823       C  0.98300883  0.35652906  0.28342336    -0.10290
H2824       H  0.03142173  0.34709905  0.28436274     0.09400
H2825       H  0.00042373  0.38835411  0.25004458     0.06930
H2826       H  0.96941010  0.35250912  0.29006371     0.06770
C2827       C  0.00046692  0.28782118  0.34908655     0.03810
C2828       C  0.01785698  0.27904852  0.35513900    -0.12340
C2829       C  0.01788259  0.26538557  0.37013766     0.01310
C2830       C  0.00043100  0.25934474  0.37833908    -0.10860
C2831       C  0.98299687  0.26729999  0.37200795     0.03800
C2832       C  0.98305172  0.28191216  0.35794451    -0.10290
H2833       H  0.03145298  0.28284690  0.34836084     0.09400
H2834       H  0.00041209  0.24840123  0.38958823     0.06930
H2835       H  0.96946470  0.28857821  0.35399288     0.06770
N2836       N  0.80104162  0.11626752  0.39688475    -0.26610
N2837       N  0.80103214  0.10279651  0.38331902    -0.34470
C2838       C  0.81603537  0.10584039  0.37133586     0.01730
C2839       C  0.82610327  0.12208894  0.37759893     0.07760
C2840       C  0.81605806  0.12825849  0.39390129    -0.05340
H2841       H  0.81922843  0.09677315  0.35898887     0.08420
H2842       H  0.81928047  0.14054506  0.40304112     0.09620
Cu2843     Cu  0.78068008  0.08084830  0.38163714     0.44170
Cu2844     Cu  0.78065584  0.11778438  0.41884355     0.41990
Cu2845     Cu  0.74438761  0.07996173  0.41939929     0.43880
N2846       N  0.75898589  0.06023030  0.38330139    -0.33990
N2847       N  0.74583031  0.05980190  0.39720285    -0.28250
C2848       C  0.73425746  0.04438560  0.39449104    -0.04350
C2849       C  0.74038367  0.03481789  0.37805021     0.07870
C2850       C  0.75610392  0.04513492  0.37133454     0.01660
H2851       H  0.72245585  0.04030294  0.40393478     0.09310
H2852       H  0.76502599  0.04171669  0.35892628     0.08390
N2853       N  0.74562246  0.10213958  0.43959268    -0.35440
N2854       N  0.75879466  0.11603104  0.43931253    -0.27620
C2855       C  0.75577544  0.12796428  0.45440734    -0.02860
C2856       C  0.73993099  0.12126107  0.46455110     0.05750
C2857       C  0.73389348  0.10483703  0.45489768     0.03840
H2858       H  0.76468345  0.14035039  0.45794438     0.08950
H2859       H  0.72206236  0.09537990  0.45886205     0.07780
N2860       N  0.93937901  0.11568480  0.25897971    -0.26610
N2861       N  0.93959408  0.10185316  0.24573001    -0.34470
C2862       C  0.95492530  0.10448514  0.23403350     0.01730
C2863       C  0.96467594  0.12079161  0.24020105     0.07760
C2864       C  0.95455413  0.12750675  0.25605985    -0.05340
H2865       H  0.95882724  0.09507065  0.22213656     0.08420
H2866       H  0.95813259  0.13985118  0.26501780     0.09620
Cu2867     Cu  0.91929486  0.07984875  0.24436816     0.44170
Cu2868     Cu  0.91885846  0.11757017  0.28076975     0.41990
Cu2869     Cu  0.88153201  0.08084597  0.28065298     0.43880
N2870       N  0.89708014  0.05978831  0.24577771    -0.33990
N2871       N  0.88318517  0.06023581  0.25893513    -0.28250
C2872       C  0.87121985  0.04515687  0.25603529    -0.04350
C2873       C  0.87793657  0.03484376  0.24030059     0.07870
C2874       C  0.89436953  0.04438510  0.23418406     0.01660
H2875       H  0.85881607  0.04174560  0.26495648     0.09310
H2876       H  0.90381593  0.04028817  0.22238579     0.08390
N2877       N  0.88322857  0.10279032  0.30102071    -0.35440
N2878       N  0.89684122  0.11619561  0.30108127    -0.27620
C2879       C  0.89386865  0.12819773  0.31610708    -0.02860
C2880       C  0.87752403  0.12210060  0.32610337     0.05750
C2881       C  0.87122372  0.10588607  0.31599866     0.03840
H2882       H  0.90305585  0.14042817  0.31938236     0.08950
H2883       H  0.85884228  0.09687084  0.31915239     0.07780
C2884       C  0.86873666  0.13092917  0.34370767     0.03810
C2885       C  0.85213843  0.12276984  0.35216964    -0.12340
C2886       C  0.84369386  0.13091175  0.36879472     0.01310
C2887       C  0.85215751  0.14751602  0.37696405    -0.10860
C2888       C  0.86876391  0.15598211  0.36880973     0.03800
C2889       C  0.87689328  0.14754666  0.35216967    -0.10290
H2890       H  0.84577615  0.11002398  0.34580206     0.09400
H2891       H  0.84580620  0.15385340  0.38973047     0.06930
H2892       H  0.88960710  0.15394101  0.34578337     0.06770
N2893       N  0.93943970  0.25418650  0.39825374    -0.26610
N2894       N  0.93953257  0.24073478  0.38461680    -0.34470
C2895       C  0.95484833  0.24364787  0.37298632     0.01730
C2896       C  0.96470801  0.25972817  0.37959234     0.07760
C2897       C  0.95467242  0.26603047  0.39566337    -0.05340
H2898       H  0.95867665  0.23457115  0.36080542     0.08420
H2899       H  0.95831872  0.27809874  0.40496275     0.09620
Cu2900     Cu  0.91912620  0.21877815  0.38260673     0.44170
Cu2901     Cu  0.91889865  0.25558329  0.41995631     0.41990
Cu2902     Cu  0.88150073  0.21892098  0.41897603     0.43880
N2903       N  0.89701467  0.19848287  0.38373830    -0.33990
N2904       N  0.88330256  0.19858549  0.39704071    -0.28250
C2905       C  0.87124018  0.18367717  0.39384827    -0.04350
C2906       C  0.87759457  0.17355314  0.37767578     0.07870
C2907       C  0.89403950  0.18347742  0.37169773     0.01660
H2908       H  0.85877659  0.18058862  0.40277101     0.09310
H2909       H  0.90329206  0.18015592  0.35952988     0.08390
N2910       N  0.88288125  0.24076104  0.43944812    -0.35440
N2911       N  0.89659014  0.25411311  0.43982200    -0.27620
C2912       C  0.89367469  0.26582591  0.45508801    -0.02860
C2913       C  0.87730678  0.25956853  0.46462051     0.05750
C2914       C  0.87085006  0.24362293  0.45446986     0.03840
H2915       H  0.90297642  0.27775870  0.45913098     0.08950
H2916       H  0.85857597  0.23454802  0.45794871     0.07780
C2917       C  0.65263025  0.99947240  0.71123076     0.03810
C2918       C  0.64530320  0.01703906  0.71829258    -0.12340
C2919       C  0.63074659  0.01702492  0.73241386     0.01310
C2920       C  0.62362681  0.99945109  0.73956297    -0.10860
C2921       C  0.63104602  0.98190105  0.73268752     0.03800
C2922       C  0.64549387  0.98190930  0.71847612    -0.10290
H2923       H  0.65083149  0.03063684  0.71274329     0.09400
H2924       H  0.61239475  0.99943353  0.75052153     0.06930
H2925       H  0.65115059  0.96831666  0.71305390     0.06770
C2926       C  0.71136006  0.99906299  0.65227671     0.03810
C2927       C  0.71855118  0.01660949  0.64503442    -0.12340
C2928       C  0.73257053  0.01657578  0.63039173     0.01310
C2929       C  0.73951038  0.99900012  0.62309349    -0.10860
C2930       C  0.73250091  0.98145398  0.63041212     0.03800
C2931       C  0.71837559  0.98148086  0.64495665    -0.10290
H2932       H  0.71315358  0.03021801  0.65067693     0.09400
H2933       H  0.75041502  0.99897720  0.61180797     0.06930
H2934       H  0.71287730  0.96789758  0.65057246     0.06770
C2935       C  0.00100505  0.65057993  0.71163788     0.03810
C2936       C  0.01854472  0.64238405  0.71798212    -0.12340
C2937       C  0.01864027  0.62802945  0.73231732     0.01310
C2938       C  0.00118267  0.62111947  0.73982578    -0.10860
C2939       C  0.98365199  0.62890175  0.73349902     0.03800
C2940       C  0.98357719  0.64386672  0.71981682    -0.10290
H2941       H  0.03215492  0.64703847  0.71177080     0.09400
H2942       H  0.00124428  0.60978418  0.75067842     0.06930
H2943       H  0.96990547  0.65018692  0.71556012     0.06770
C2944       C  0.00063025  0.71039862  0.65219211     0.03810
C2945       C  0.01810446  0.71682223  0.64388701    -0.12340
C2946       C  0.01809907  0.73122054  0.62961153     0.01310
C2947       C  0.00060534  0.73872924  0.62287173    -0.10860
C2948       C  0.98312000  0.73230415  0.63073362     0.03800
C2949       C  0.98314421  0.71853585  0.64563190    -0.10290
H2950       H  0.03174858  0.71062207  0.64839869     0.09400
H2951       H  0.00060264  0.74963221  0.61158414     0.06930
H2952       H  0.96951364  0.71417699  0.65201354     0.06770
N2953       N  0.56158058  0.60168900  0.75552498    -0.26610
N2954       N  0.56178592  0.61551943  0.74229091    -0.34470
C2955       C  0.54660209  0.62729176  0.74522664     0.01730
C2956       C  0.53648246  0.62055529  0.76107941     0.07760
C2957       C  0.54624506  0.60427630  0.76723059    -0.05340
H2958       H  0.54301576  0.63962628  0.73628423     0.08420
H2959       H  0.54234958  0.59485014  0.77911481     0.09620
Cu2960     Cu  0.58230475  0.61750852  0.72049300     0.44170
Cu2961     Cu  0.58190093  0.57975180  0.75681248     0.41990
Cu2962     Cu  0.61964256  0.58086970  0.72045693     0.43880
N2963       N  0.60432478  0.61628751  0.70016303    -0.33990
N2964       N  0.61794436  0.60291543  0.70017000    -0.28250
C2965       C  0.62994172  0.60609422  0.68519839    -0.04350
C2966       C  0.62363125  0.62232548  0.67515125     0.07870
C2967       C  0.60728708  0.62834592  0.68518084     0.01660
H2968       H  0.64232096  0.59711427  0.68200260     0.09310
H2969       H  0.59809225  0.64055829  0.68194615     0.08390
N2970       N  0.61795538  0.56017285  0.74212402    -0.35440
N2971       N  0.60407545  0.55971039  0.75529983    -0.27620
C2972       C  0.60675957  0.54430012  0.76686487    -0.02860
C2973       C  0.62316011  0.53475620  0.76072127     0.05750
C2974       C  0.62988468  0.54508141  0.74498986     0.03840
H2975       H  0.59731829  0.54020608  0.77866995     0.08950
H2976       H  0.64228110  0.54167774  0.73606111     0.07780
N2977       N  0.60447967  0.75417357  0.56117079    -0.26610
N2978       N  0.61825489  0.74091663  0.56154663    -0.34470
C2979       C  0.63017844  0.74376250  0.54641886     0.01730
C2980       C  0.62355351  0.75957279  0.53618211     0.07760
C2981       C  0.60722704  0.76578154  0.54580330    -0.05340
H2982       H  0.64249392  0.73477031  0.54293048     0.08420
H2983       H  0.59785588  0.77763875  0.54177259     0.09620
Cu2984     Cu  0.61977570  0.71918871  0.58218009     0.44170
Cu2985     Cu  0.58228477  0.75569742  0.58116809     0.41990
Cu2986     Cu  0.58210586  0.71903512  0.61859481     0.43880
N2987       N  0.61795339  0.69887024  0.60418734    -0.33990
N2988       N  0.60423002  0.69877011  0.61748389    -0.28250
C2989       C  0.60717671  0.68377759  0.62953251    -0.04350
C2990       C  0.62361103  0.67384683  0.62357778     0.07870
C2991       C  0.62998962  0.68396440  0.60740213     0.01660
H2992       H  0.59790844  0.68045870  0.64169088     0.09310
H2993       H  0.64245144  0.68086203  0.59848698     0.08390
N2994       N  0.56166273  0.74093037  0.61655230    -0.35440
N2995       N  0.56174787  0.75433409  0.60288434    -0.27620
C2996       C  0.54650255  0.76614149  0.60544011    -0.02860
C2997       C  0.53646176  0.75986856  0.62152048     0.05750
C2998       C  0.54633737  0.74384260  0.62817151     0.03840
H2999       H  0.54285375  0.77816888  0.59611407     0.08950
H3000       H  0.54251524  0.73480365  0.64037689     0.07780
C3001       C  0.63240721  0.65627078  0.63245895     0.03810
C3002       C  0.62426007  0.64782322  0.64910039    -0.12340
C3003       C  0.63240631  0.63120805  0.65755366     0.01310
C3004       C  0.64900101  0.62307548  0.64908518    -0.10860
C3005       C  0.65745736  0.63121385  0.63247193     0.03800
C3006       C  0.64901090  0.64780746  0.62430819    -0.10290
H3007       H  0.61154649  0.65420026  0.65549197     0.09400
H3008       H  0.65536023  0.61034625  0.65544206     0.06930
H3009       H  0.65537332  0.65413789  0.61154467     0.06770
N3010       N  0.75534180  0.60249887  0.56147342    -0.26610
N3011       N  0.74226089  0.61644496  0.56194569    -0.34470
C3012       C  0.74520599  0.62843985  0.54689570     0.01730
C3013       C  0.76089039  0.62170909  0.53654926     0.07760
C3014       C  0.76692589  0.60521423  0.54605737    -0.05340
H3015       H  0.73633930  0.64087681  0.54351926     0.08420
H3016       H  0.77867182  0.59573936  0.54193225     0.09620
Cu3017     Cu  0.72054633  0.61816568  0.58253648     0.44170
Cu3018     Cu  0.75664536  0.58025399  0.58160773     0.41990
Cu3019     Cu  0.72039283  0.58109100  0.61950086     0.43880
N3020       N  0.70013754  0.61659959  0.60444009    -0.33990
N3021       N  0.70007520  0.60307307  0.61793211    -0.28250
C3022       C  0.68504747  0.60609686  0.62989109    -0.04350
C3023       C  0.67504669  0.62238838  0.62368089     0.07870
C3024       C  0.68515560  0.62860045  0.60743943     0.01660
H3025       H  0.68178624  0.59698497  0.64218064     0.09310
H3026       H  0.68200032  0.64092397  0.59835067     0.08390
N3027       N  0.74209210  0.56049075  0.61774139    -0.35440
N3028       N  0.75522469  0.56008009  0.60381355    -0.27620
C3029       C  0.76680458  0.54468649  0.60650534    -0.02860
C3030       C  0.76071563  0.53511563  0.62295997     0.05750
C3031       C  0.74500070  0.54540795  0.62969757     0.03840
H3032       H  0.77859117  0.54062131  0.59704091     0.08950
H3033       H  0.73610222  0.54198304  0.64212191     0.07780
C3034       C  0.65297434  0.70996463  0.00062430     0.03810
C3035       C  0.64597817  0.71741742  0.01819854    -0.12340
C3036       C  0.63129641  0.73138375  0.01821568     0.01310
C3037       C  0.62385619  0.73818677  0.00065330    -0.10860
C3038       C  0.63099183  0.73104970  0.98307865     0.03800
C3039       C  0.64541073  0.71682038  0.98306716    -0.10290
H3040       H  0.65172598  0.71214070  0.03180159     0.09400
H3041       H  0.61259227  0.74908940  0.00066203     0.06930
H3042       H  0.65084373  0.71120904  0.96945213     0.06770
C3043       C  0.71188260  0.65096359  0.00058839     0.03810
C3044       C  0.71932991  0.64400434  0.01815935    -0.12340
C3045       C  0.73328356  0.62930784  0.01817539     0.01310
C3046       C  0.74007634  0.62181383  0.00061160    -0.10860
C3047       C  0.73292286  0.62889391  0.98304069     0.03800
C3048       C  0.71871395  0.64333231  0.98303130    -0.10290
H3049       H  0.71406139  0.64979541  0.03176330     0.09400
H3050       H  0.75097778  0.61054784  0.00061593     0.06930
H3051       H  0.71311261  0.64874037  0.96941784     0.06770
C3052       C  0.65273661  0.78857202  0.50032299     0.03810
C3053       C  0.64549725  0.78142150  0.48275200    -0.12340
C3054       C  0.63100385  0.76723807  0.48276095     0.01310
C3055       C  0.62385330  0.76011239  0.50033142    -0.10860
C3056       C  0.63115714  0.76710001  0.51789030     0.03800
C3057       C  0.64554666  0.78137578  0.51788944    -0.10290
H3058       H  0.65104073  0.78695525  0.46915241     0.09400
H3059       H  0.61265046  0.74912274  0.50034026     0.06930
H3060       H  0.65113138  0.78686893  0.53148781     0.06770
C3061       C  0.71157899  0.84743837  0.50065394     0.03810
C3062       C  0.71886668  0.85457716  0.48310147    -0.12340
C3063       C  0.73303655  0.86907657  0.48312701     0.01310
C3064       C  0.74003238  0.87633366  0.50070702    -0.10860
C3065       C  0.73290531  0.86914294  0.51826464     0.03800
C3066       C  0.71862243  0.85474809  0.51823842    -0.10290
H3067       H  0.71343340  0.84895959  0.46949238     0.09400
H3068       H  0.75102830  0.88753036  0.50072457     0.06930
H3069       H  0.71303700  0.84922565  0.53182565     0.06770
C3070       C  0.78977526  0.65114989  0.50067298     0.03810
C3071       C  0.78295705  0.64352826  0.48310607    -0.12340
C3072       C  0.76876702  0.62903404  0.48309942     0.01310
C3073       C  0.76162698  0.62189360  0.50067235    -0.10860
C3074       C  0.76839023  0.62939579  0.51824367     0.03800
C3075       C  0.78232064  0.64414350  0.51823750    -0.10290
H3076       H  0.78856495  0.64897656  0.46949834     0.09400
H3077       H  0.75073825  0.61059237  0.50067252     0.06930
H3078       H  0.78756939  0.64993595  0.53184524     0.06770
C3079       C  0.84883630  0.71014303  0.50075740     0.03810
C3080       C  0.85647274  0.71696109  0.48319654    -0.12340
C3081       C  0.87100110  0.73111362  0.48319773     0.01310
C3082       C  0.87816604  0.73821282  0.50077649    -0.10860
C3083       C  0.87063178  0.73147345  0.51834721     0.03800
C3084       C  0.85584229  0.71758471  0.51832942    -0.10290
H3085       H  0.85101405  0.71137624  0.46958482     0.09400
H3086       H  0.88949027  0.74907614  0.50078135     0.06930
H3087       H  0.85002157  0.71235295  0.53193240     0.06770
N3088       N  0.80119317  0.88214227  0.60445291    -0.26610
N3089       N  0.80112975  0.89565560  0.61797699    -0.34470
C3090       C  0.81610649  0.89269874  0.62999355     0.01730
C3091       C  0.82620754  0.87646696  0.62378939     0.07760
C3092       C  0.81621182  0.87021575  0.60749301    -0.05340
H3093       H  0.81926370  0.90180422  0.64232286     0.08420
H3094       H  0.81946832  0.85792007  0.59838329     0.09620
Cu3095     Cu  0.78072000  0.91751469  0.61952415     0.44170
Cu3096     Cu  0.78090673  0.88044299  0.58243634     0.41990
Cu3097     Cu  0.74441202  0.91788945  0.58180793     0.43880
N3098       N  0.75887943  0.93791717  0.61773964    -0.33990
N3099       N  0.74569576  0.93812337  0.60388231    -0.28250
C3100       C  0.73399327  0.95342817  0.60652154    -0.04350
C3101       C  0.74007051  0.96315823  0.62287063     0.07870
C3102       C  0.75589641  0.95306480  0.62960157     0.01660
H3103       H  0.72215983  0.95733721  0.59707358     0.09310
H3104       H  0.76481654  0.95666979  0.64194993     0.08390
N3105       N  0.74586783  0.89578770  0.56161826    -0.35440
N3106       N  0.75914651  0.88202937  0.56187871    -0.27620
C3107       C  0.75628202  0.87013980  0.54671907    -0.02860
C3108       C  0.74042681  0.87674683  0.53657237     0.05750
C3109       C  0.73421455  0.89304951  0.54628603     0.03840
H3110       H  0.76528657  0.85784772  0.54315268     0.08950
H3111       H  0.72232390  0.90240693  0.54234206     0.07780
N3112       N  0.89754504  0.74478055  0.56148528    -0.26610
N3113       N  0.88345771  0.75770488  0.56204452    -0.34470
C3114       C  0.87143095  0.75461596  0.54706237     0.01730
C3115       C  0.87828718  0.73900582  0.53665866     0.07760
C3116       C  0.89489303  0.73316620  0.54606730    -0.05340
H3117       H  0.85889614  0.76335683  0.54375259     0.08420
H3118       H  0.90448317  0.72153418  0.54187106     0.09620
Cu3119     Cu  0.88160479  0.77945219  0.58262574     0.44170
Cu3120     Cu  0.91987511  0.74370874  0.58153435     0.41990
Cu3121     Cu  0.91858524  0.77963281  0.61965346     0.43880
N3122       N  0.88317095  0.79987265  0.60454883    -0.33990
N3123       N  0.89666572  0.79990301  0.61804913    -0.28250
C3124       C  0.89369956  0.81494029  0.63001566    -0.04350
C3125       C  0.87747534  0.82499200  0.62381036     0.07870
C3126       C  0.87123366  0.81490643  0.60755677     0.01660
H3127       H  0.90281601  0.81817377  0.64229898     0.09310
H3128       H  0.85894847  0.81811680  0.59845884     0.08390
N3129       N  0.93933781  0.75817370  0.61787103    -0.35440
N3130       N  0.93998146  0.74519272  0.60379967    -0.27620
C3131       C  0.95547846  0.73376583  0.60646457    -0.02860
C3132       C  0.96484573  0.73978501  0.62306135     0.05750
C3133       C  0.95433775  0.75530918  0.62991187     0.03840
H3134       H  0.95972812  0.72209923  0.59691634     0.08950
H3135       H  0.95756070  0.76412107  0.64245707     0.07780
C3136       C  0.86888350  0.86775284  0.65762742     0.03810
C3137       C  0.85228756  0.87591251  0.64918842    -0.12340
C3138       C  0.84378652  0.86770845  0.63261230     0.01310
C3139       C  0.85217865  0.85106551  0.62448361    -0.10860
C3140       C  0.86875630  0.84262027  0.63261009     0.03800
C3141       C  0.87695580  0.85110457  0.64918556    -0.10290
H3142       H  0.84598096  0.88869995  0.65551913     0.09400
H3143       H  0.84578272  0.84465186  0.61178224     0.06930
H3144       H  0.88966015  0.84472394  0.65554979     0.06770
N3145       N  0.89728092  0.93881727  0.75556375    -0.26610
N3146       N  0.88340912  0.93831900  0.74240702    -0.34470
C3147       C  0.87142915  0.95336417  0.74529232     0.01730
C3148       C  0.87812000  0.96370437  0.76101757     0.07760
C3149       C  0.89454699  0.95421931  0.76714330    -0.05340
H3150       H  0.85904194  0.95673871  0.73636355     0.08420
H3151       H  0.90397802  0.95835680  0.77893194     0.09620
Cu3152     Cu  0.88183408  0.91771132  0.72070334     0.44170
Cu3153     Cu  0.91951154  0.91885883  0.75697092     0.41990
Cu3154     Cu  0.91939054  0.88131395  0.72030908     0.43880
N3155       N  0.88355122  0.89584365  0.70028484    -0.33990
N3156       N  0.89723895  0.88254347  0.70008965    -0.28250
C3157       C  0.89421934  0.87056634  0.68504394    -0.04350
C3158       C  0.87776996  0.87658229  0.67518821     0.07870
C3159       C  0.87146261  0.89271223  0.68539427     0.01660
H3160       H  0.90344516  0.85841237  0.68165398     0.09310
H3161       H  0.85900804  0.90163879  0.68237324     0.08390
N3162       N  0.93987053  0.88331420  0.74217267    -0.35440
N3163       N  0.93992092  0.89703596  0.75554094    -0.27620
C3164       C  0.95519438  0.89445023  0.76729982    -0.02860
C3165       C  0.96509721  0.87829126  0.76104406     0.05750
C3166       C  0.95512169  0.87162438  0.74506976     0.03840
H3167       H  0.95895641  0.90380696  0.77928759     0.08950
H3168       H  0.95883853  0.85937745  0.73603938     0.07780
C3169       C  0.50071064  0.65082785  0.78930897     0.03810
C3170       C  0.51819765  0.64256182  0.78292155    -0.12340
C3171       C  0.51820560  0.62818819  0.76860066     0.01310
C3172       C  0.50071505  0.62142673  0.76104950    -0.10860
C3173       C  0.48322395  0.62932840  0.76738608     0.03800
C3174       C  0.48323344  0.64422141  0.78117253    -0.10290
H3175       H  0.53182997  0.64718406  0.78910029     0.09400
H3176       H  0.50072060  0.61010597  0.75016711     0.06930
H3177       H  0.46960393  0.65057310  0.78555332     0.06770
C3178       C  0.50079271  0.71052150  0.84883624     0.03810
C3179       C  0.48333273  0.71869157  0.85543481    -0.12340
C3180       C  0.48335701  0.73253102  0.87027832     0.01310
C3181       C  0.50086474  0.73888984  0.87813262    -0.10860
C3182       C  0.51833766  0.73129091  0.87139014     0.03800
C3183       C  0.51829654  0.71691576  0.85707041    -0.10290
H3184       H  0.46968919  0.71429317  0.84911843     0.09400
H3185       H  0.50089554  0.74980190  0.88942496     0.06930
H3186       H  0.53191480  0.71070036  0.85246544     0.06770
C3187       C  0.50072938  0.78807306  0.65192462     0.03810
C3188       C  0.48331115  0.77940045  0.64578364    -0.12340
C3189       C  0.48327083  0.76569319  0.63081732     0.01310
C3190       C  0.50072048  0.75956539  0.62268732    -0.10860
C3191       C  0.51818142  0.76745531  0.62909345     0.03800
C3192       C  0.51815435  0.78206224  0.64318136    -0.10290
H3193       H  0.46971023  0.78331000  0.65248187     0.09400
H3194       H  0.50071606  0.74860835  0.61143797     0.06930
H3195       H  0.53176273  0.78865588  0.64724412     0.06770
C3196       C  0.50078519  0.84786030  0.71175046     0.03810
C3197       C  0.48337642  0.85405096  0.72040510    -0.12340
C3198       C  0.48336569  0.86901733  0.73411507     0.01310
C3199       C  0.50083718  0.87708615  0.74027430    -0.10860
C3200       C  0.51828705  0.87062441  0.73240964     0.03800
C3201       C  0.51823010  0.85655041  0.71778988    -0.10290
H3202       H  0.46975967  0.84738586  0.71648700     0.09400
H3203       H  0.50085870  0.88832772  0.75123894     0.06930
H3204       H  0.53183233  0.85246268  0.71120505     0.06770
C3205       C  0.78998059  0.99909344  0.84884545     0.03810
C3206       C  0.78294244  0.01664337  0.85622875    -0.12340
C3207       C  0.76867529  0.01661835  0.87063198     0.01310
C3208       C  0.76159873  0.99904080  0.87781535    -0.10860
C3209       C  0.76859013  0.98148762  0.87050034     0.03800
C3210       C  0.78270110  0.98151362  0.85593695    -0.10290
H3211       H  0.78849748  0.03025093  0.85072795     0.09400
H3212       H  0.75062042  0.99902188  0.88902862     0.06930
H3213       H  0.78812363  0.96792779  0.85026498     0.06770
C3214       C  0.84885334  0.99949566  0.78997483     0.03810
C3215       C  0.85635350  0.01707504  0.78310299    -0.12340
C3216       C  0.87081944  0.01709350  0.76889011     0.01310
C3217       C  0.87793733  0.99953906  0.76171597    -0.10860
C3218       C  0.87047144  0.98197581  0.76851675     0.03800
C3219       C  0.85585600  0.98195115  0.78255770    -0.10290
H3220       H  0.85088523  0.03066224  0.78872597     0.09400
H3221       H  0.88918714  0.99954693  0.75077526     0.06930
H3222       H  0.85010210  0.96834480  0.78785462     0.06770
N3223       N  0.60432620  0.74413952  0.93982628    -0.26610
N3224       N  0.61814462  0.75738598  0.93950086    -0.34470
C3225       C  0.63004878  0.75445482  0.95460619     0.01730
C3226       C  0.62338898  0.73859615  0.96478597     0.07760
C3227       C  0.60703744  0.73245432  0.95514718    -0.05340
H3228       H  0.64238523  0.76342577  0.95812427     0.08420
H3229       H  0.59762657  0.72058979  0.95913669     0.09620
Cu3230     Cu  0.61979704  0.77922599  0.91895092     0.44170
Cu3231     Cu  0.58215289  0.74274488  0.91976478     0.41990
Cu3232     Cu  0.58244095  0.77935461  0.88229897     0.43880
N3233       N  0.61810963  0.79960340  0.89695881    -0.33990
N3234       N  0.60448037  0.79965322  0.88358915    -0.28250
C3235       C  0.60745026  0.81464910  0.87155316    -0.04350
C3236       C  0.62381113  0.82465017  0.87757829     0.07870
C3237       C  0.63012439  0.81456895  0.89379455     0.01660
H3238       H  0.59824969  0.81790767  0.85934737     0.09310
H3239       H  0.64252376  0.81773363  0.90276449     0.08390
N3240       N  0.56192839  0.75754588  0.88416344    -0.35440
N3241       N  0.56178064  0.74419066  0.89787721    -0.27620
C3242       C  0.54645247  0.73248853  0.89522580    -0.02860
C3243       C  0.53662927  0.73877455  0.87903155     0.05750
C3244       C  0.54670733  0.75470079  0.87240939     0.03840
H3245       H  0.54259838  0.72051822  0.90455861     0.08950
H3246       H  0.54307453  0.76374536  0.86016197     0.07780
N3247       N  0.60441947  0.88227234  0.80109484    -0.26610
N3248       N  0.61814731  0.89556731  0.80097836    -0.34470
C3249       C  0.63018956  0.89236623  0.81589159     0.01730
C3250       C  0.62381162  0.87620263  0.82602957     0.07760
C3251       C  0.60737095  0.87024221  0.81610290    -0.05340
H3252       H  0.64265571  0.90128118  0.81898738     0.08420
H3253       H  0.59809971  0.85809034  0.81943519     0.09620
Cu3254     Cu  0.61996148  0.91756244  0.78063199     0.44170
Cu3255     Cu  0.58226881  0.88111409  0.78083740     0.41990
Cu3256     Cu  0.58240062  0.91849987  0.74418104     0.43880
N3257       N  0.61834957  0.93820371  0.75890527    -0.33990
N3258       N  0.60453268  0.93855170  0.74568481    -0.28250
C3259       C  0.60719123  0.95393728  0.73408500    -0.04350
C3260       C  0.62350429  0.96360443  0.74025730     0.07870
C3261       C  0.63022048  0.95336957  0.75603520     0.01660
H3262       H  0.59777432  0.95794139  0.72225113     0.09310
H3263       H  0.64255961  0.95688566  0.76499049     0.08390
N3264       N  0.56188513  0.89677943  0.74553242    -0.35440
N3265       N  0.56180242  0.88311543  0.75893878    -0.27620
C3266       C  0.54646664  0.87150356  0.75602649    -0.02860
C3267       C  0.53658605  0.87816199  0.73999829     0.05750
C3268       C  0.54663509  0.89423291  0.73372512     0.03840
H3269       H  0.54263607  0.85930533  0.76507026     0.08950
H3270       H  0.54298341  0.90356576  0.72170264     0.07780
C3271       C  0.65765380  0.86732230  0.86869951     0.03810
C3272       C  0.64919073  0.85071352  0.87683956    -0.12340
C3273       C  0.63259730  0.84224482  0.86869750     0.01310
C3274       C  0.62445874  0.85069446  0.85207104    -0.10860
C3275       C  0.63260929  0.86733134  0.84361935     0.03800
C3276       C  0.64921386  0.87548187  0.85209207    -0.10290
H3277       H  0.65553951  0.84436222  0.88958063     0.09400
H3278       H  0.61174735  0.84430124  0.84568545     0.06930
H3279       H  0.65557993  0.88824089  0.84575733     0.06770
N3280       N  0.70026746  0.88187672  0.89687612    -0.26610
N3281       N  0.70030702  0.89537955  0.88335991    -0.34470
C3282       C  0.68532860  0.89237404  0.87135035     0.01730
C3283       C  0.67523986  0.87611595  0.87754161     0.07760
C3284       C  0.68525230  0.86990084  0.89383224    -0.05340
H3285       H  0.68216175  0.90147216  0.85903538     0.08420
H3286       H  0.68200608  0.85759651  0.90292833     0.09620
Cu3287     Cu  0.72068209  0.91730155  0.88179548     0.44170
Cu3288     Cu  0.72061127  0.88032922  0.91886596     0.41990
Cu3289     Cu  0.75705967  0.91803259  0.91942900     0.43880
N3290       N  0.74243856  0.93783941  0.88344896    -0.33990
N3291       N  0.75565869  0.93819619  0.89727018    -0.28250
C3292       C  0.76728121  0.95357095  0.89452706    -0.04350
C3293       C  0.76110744  0.96318371  0.87815234     0.07870
C3294       C  0.74531338  0.95294434  0.87151470     0.01660
H3295       H  0.77912948  0.95760765  0.90391825     0.09310
H3296       H  0.73634040  0.95641903  0.85917755     0.08390
N3297       N  0.75563949  0.89593481  0.93966164    -0.35440
N3298       N  0.74240108  0.88210414  0.93940295    -0.27620
C3299       C  0.74530884  0.87023788  0.95455554    -0.02860
C3300       C  0.76114252  0.87692730  0.96471061     0.05750
C3301       C  0.76730283  0.89325994  0.95499756     0.03840
H3302       H  0.73635073  0.85789259  0.95810649     0.08950
H3303       H  0.77917924  0.90266842  0.95893569     0.07780
C3304       C  0.65260105  0.49894423  0.78961068     0.03810
C3305       C  0.64520975  0.48138122  0.78243249    -0.12340
C3306       C  0.63062206  0.48137921  0.76837831     0.01310
C3307       C  0.62341410  0.49892018  0.76133530    -0.10860
C3308       C  0.63079188  0.51647363  0.76823020     0.03800
C3309       C  0.64531292  0.51649522  0.78235631    -0.10290
H3310       H  0.65085691  0.46773110  0.78768140     0.09400
H3311       H  0.61213959  0.49891004  0.75043767     0.06930
H3312       H  0.65072446  0.53015585  0.78786721     0.06770
C3313       C  0.71179858  0.49908517  0.84888581     0.03810
C3314       C  0.71896007  0.48153691  0.85626918    -0.12340
C3315       C  0.73302175  0.48155613  0.87084905     0.01310
C3316       C  0.74009581  0.49910823  0.87805586    -0.10860
C3317       C  0.73319627  0.51664980  0.87070634     0.03800
C3318       C  0.71906316  0.51664965  0.85618883    -0.10290
H3319       H  0.71369377  0.46787644  0.85061705     0.09400
H3320       H  0.75100546  0.49911652  0.88931979     0.06930
H3321       H  0.71356672  0.53030006  0.85078386     0.06770
C3322       C  0.78979640  0.49928293  0.65214615     0.03810
C3323       C  0.78225505  0.51683351  0.64524945    -0.12340
C3324       C  0.76824062  0.51682277  0.63060430     0.01310
C3325       C  0.76148839  0.49924593  0.62309775    -0.10860
C3326       C  0.76874227  0.48169373  0.63011783     0.03800
C3327       C  0.78300661  0.48171719  0.64450502    -0.10290
H3328       H  0.78749829  0.53044409  0.65104761     0.09400
H3329       H  0.75054370  0.49922520  0.61186890     0.06930
H3330       H  0.78867682  0.46811996  0.64987404     0.06770
C3331       C  0.84880576  0.49934340  0.71103042     0.03810
C3332       C  0.85612893  0.48175878  0.71803873    -0.12340
C3333       C  0.87052432  0.48171443  0.73228650     0.01310
C3334       C  0.87788531  0.49924472  0.73929137    -0.10860
C3335       C  0.87065465  0.51683645  0.73236225     0.03800
C3336       C  0.85599349  0.51688887  0.71836604    -0.10290
H3337       H  0.85054100  0.46816906  0.71251787     0.09400
H3338       H  0.88912855  0.49919684  0.75022119     0.06930
H3339       H  0.85038064  0.53051372  0.71301001     0.06770
C3340       C  0.84938528  0.78840629  0.00046335     0.03810
C3341       C  0.85678697  0.78112061  0.01795637    -0.12340
C3342       C  0.87122958  0.76691449  0.01779884     0.01310
C3343       C  0.87832650  0.75990913  0.00017498    -0.10860
C3344       C  0.87098005  0.76699264  0.98270839     0.03800
C3345       C  0.85657280  0.78120764  0.98283958    -0.10290
H3346       H  0.85123375  0.78637447  0.03166184     0.09400
H3347       H  0.88950619  0.74891955  0.00005266     0.06930
H3348       H  0.85114539  0.78681338  0.96923746     0.06770
C3349       C  0.79027456  0.84766604  0.00050598     0.03810
C3350       C  0.78300300  0.85495322  0.98295632    -0.12340
C3351       C  0.76871971  0.86932061  0.98299444     0.01310
C3352       C  0.76165226  0.87649001  0.00057289    -0.10860
C3353       C  0.76874604  0.86929390  0.01810901     0.03800
C3354       C  0.78300682  0.85491845  0.01808080    -0.10290
H3355       H  0.78857906  0.84961508  0.96929264     0.09400
H3356       H  0.75061508  0.88762255  0.00060616     0.06930
H3357       H  0.78831464  0.84928779  0.03171975     0.06770
C3358       C  0.00088601  0.84803511  0.78920133     0.03810
C3359       C  0.01831763  0.85442999  0.78080176    -0.12340
C3360       C  0.01831486  0.86934155  0.76707767     0.01310
C3361       C  0.00084692  0.87733160  0.76085673    -0.10860
C3362       C  0.98337708  0.87071642  0.76857806     0.03800
C3363       C  0.98341074  0.85649086  0.78303019    -0.10290
H3364       H  0.03194172  0.84792433  0.78492695     0.09400
H3365       H  0.00084340  0.88860788  0.74994218     0.06930
H3366       H  0.96979523  0.85209446  0.78941326     0.06770
C3367       C  0.00093792  0.78806305  0.84842541     0.03810
C3368       C  0.98344800  0.78183595  0.85684269    -0.12340
C3369       C  0.98335703  0.76721378  0.87087670     0.01310
C3370       C  0.00078378  0.75935013  0.87735728    -0.10860
C3371       C  0.01828616  0.76566138  0.86945762     0.03800
C3372       C  0.01834985  0.77959071  0.85472595    -0.10290
H3373       H  0.96985861  0.78831434  0.85256556     0.09400
H3374       H  0.00072517  0.74832567  0.88852646     0.06930
H3375       H  0.03199776  0.78382599  0.84830130     0.06770
N3376       N  0.75937315  0.61610589  0.93950637    -0.26610
N3377       N  0.74614215  0.60227132  0.93972137    -0.34470
C3378       C  0.73440454  0.60495032  0.95501886     0.01730
C3379       C  0.74051205  0.62129520  0.96474761     0.07760
C3380       C  0.75639146  0.62798301  0.95464841    -0.05340
H3381       H  0.72252768  0.59552788  0.95892800     0.08420
H3382       H  0.76533868  0.64032505  0.95824020     0.09620
Cu3383     Cu  0.74485895  0.58016414  0.91950134     0.44170
Cu3384     Cu  0.78124185  0.61785480  0.91905458     0.41990
Cu3385     Cu  0.78124228  0.58080451  0.88190471     0.43880
N3386       N  0.74626194  0.55995449  0.89739352    -0.33990
N3387       N  0.75948801  0.56025471  0.88355927    -0.28250
C3388       C  0.75657817  0.54512525  0.87164670    -0.04350
C3389       C  0.74075317  0.53494040  0.87832508     0.07870
C3390       C  0.73460345  0.54460562  0.89469058     0.01660
H3391       H  0.76553666  0.54160330  0.85929372     0.09310
H3392       H  0.72273812  0.54062926  0.90409921     0.08390
N3393       N  0.80154153  0.60279770  0.88352222    -0.35440
N3394       N  0.80156621  0.61630381  0.89705380    -0.27620
C3395       C  0.81652977  0.62833595  0.89397549    -0.02860
C3396       C  0.82651484  0.62215549  0.87764446     0.05750
C3397       C  0.81647669  0.60586018  0.87146615     0.03840
H3398       H  0.81975108  0.64066185  0.90306303     0.08950
H3399       H  0.81962112  0.59679003  0.85910915     0.07780
N3400       N  0.94049295  0.60188460  0.74634533    -0.26610
N3401       N  0.93982645  0.61594014  0.75934069    -0.34470
C3402       C  0.95485585  0.62798026  0.75651942     0.01730
C3403       C  0.96541960  0.62112948  0.74102492     0.07760
C3404       C  0.95604049  0.60455333  0.73495342    -0.05340
H3405       H  0.95804553  0.64053769  0.76532660     0.08420
H3406       H  0.96029405  0.59504209  0.72325593     0.09620
Cu3407     Cu  0.91900776  0.61772436  0.78075596     0.44170
Cu3408     Cu  0.92031656  0.57967823  0.74476741     0.41990
Cu3409     Cu  0.88200964  0.58075608  0.78060787     0.43880
N3410       N  0.89705249  0.61617200  0.80101919    -0.33990
N3411       N  0.88353199  0.60267894  0.80100968    -0.28250
C3412       C  0.87152899  0.60575350  0.81599796    -0.04350
C3413       C  0.87776135  0.62204586  0.82602848     0.07870
C3414       C  0.89404715  0.62819879  0.81599751     0.01660
H3415       H  0.85918207  0.59670333  0.81919046     0.09310
H3416       H  0.90317434  0.64049305  0.81919644     0.08390
N3417       N  0.88379100  0.56029917  0.75875856    -0.35440
N3418       N  0.89785692  0.55975400  0.74578274    -0.27620
C3419       C  0.89508030  0.54443413  0.73407052    -0.02860
C3420       C  0.87841441  0.53508702  0.73990571     0.05750
C3421       C  0.87166350  0.54540319  0.75561717     0.03840
H3422       H  0.90463351  0.54025337  0.72238885     0.08950
H3423       H  0.85912499  0.54209362  0.76438666     0.07780
C3424       C  0.84399773  0.63103015  0.86870437     0.03810
C3425       C  0.85230610  0.64783398  0.87662730    -0.12340
C3426       C  0.86880579  0.65634775  0.86831261     0.01310
C3427       C  0.87695957  0.64777823  0.85176461    -0.10860
C3428       C  0.86895286  0.63096894  0.84355512     0.03800
C3429       C  0.85248456  0.62274064  0.85217616    -0.10290
H3430       H  0.84591544  0.65429301  0.88931432     0.09400
H3431       H  0.88957371  0.65422934  0.84524691     0.06930
H3432       H  0.84626713  0.60982577  0.84600711     0.06770
N3433       N  0.88344052  0.74120072  0.93871893    -0.26610
N3434       N  0.89733139  0.75435984  0.93914299    -0.34470
C3435       C  0.89479824  0.76580941  0.95467622     0.01730
C3436       C  0.87849268  0.75957908  0.96434090     0.07760
C3437       C  0.87165070  0.74394518  0.95395732    -0.05340
H3438       H  0.90428241  0.77757888  0.95877232     0.08420
H3439       H  0.85927640  0.73499929  0.95741327     0.09620
Cu3440     Cu  0.91935470  0.75589191  0.91895548     0.44170
Cu3441     Cu  0.88160891  0.71968348  0.91794097     0.41990
Cu3442     Cu  0.91906535  0.71930466  0.88136510     0.43880
N3443       N  0.93975172  0.75440608  0.89711940    -0.33990
N3444       N  0.93966148  0.74103740  0.88340071    -0.28250
C3445       C  0.95498462  0.74382960  0.87175163    -0.04350
C3446       C  0.96504650  0.75973528  0.87845080     0.07870
C3447       C  0.95511706  0.76607463  0.89456840     0.01660
H3448       H  0.95868013  0.73478175  0.85950821     0.09310
H3449       H  0.95892648  0.77804582  0.90392784     0.08390
N3450       N  0.89689459  0.69912486  0.88267122    -0.35440
N3451       N  0.88323406  0.69931352  0.89602513    -0.27620
C3452       C  0.87119965  0.68434563  0.89301119    -0.02860
C3453       C  0.87752719  0.67409605  0.87691108     0.05750
C3454       C  0.89391731  0.68401127  0.87077705     0.03840
H3455       H  0.85881505  0.68125955  0.90204479     0.08950
H3456       H  0.90317293  0.68057815  0.85864307     0.07780
C3457       C  0.98692003  0.81782880  0.80422669     0.24280
C3458       C  0.00094937  0.83263199  0.80434128    -0.23830
C3459       C  0.01503634  0.83256697  0.81908184     0.19180
C3460       C  0.01506253  0.81815404  0.83329385     0.24220
C3461       C  0.00100214  0.80337416  0.83319662    -0.23770
C3462       C  0.98694512  0.80342091  0.81843732     0.19120
F3463       F  0.97347228  0.78916275  0.81732318    -0.13730
F3464       F  0.97343431  0.81686108  0.78999079    -0.16100
F3465       F  0.02855419  0.81911523  0.84752809    -0.16100
F3466       F  0.02851208  0.84682455  0.82020065    -0.13730
C3467       C  0.83667007  0.82057827  0.01145338     0.24280
C3468       C  0.83421460  0.80354432  0.00055819    -0.23830
C3469       C  0.81723137  0.80112805  0.98962827     0.19180
C3470       C  0.80297499  0.81546395  0.98959666     0.24220
C3471       C  0.80541925  0.83249404  0.00049836    -0.23770
C3472       C  0.82240675  0.83491384  0.01142866     0.19120
F3473       F  0.82543559  0.85141434  0.02168334    -0.13730
F3474       F  0.85314491  0.82359074  0.02170043    -0.16100
F3475       F  0.78652900  0.81247015  0.97930152    -0.16100
F3476       F  0.81421722  0.78464208  0.97934576    -0.13730
C3477       C  0.80059867  0.50570671  0.68606166     0.24280
C3478       C  0.80488072  0.49929098  0.66723991    -0.23830
C3479       C  0.82364793  0.49287545  0.66287825     0.19180
C3480       C  0.83797452  0.49290964  0.67716243     0.24220
C3481       C  0.83369869  0.49935686  0.69597273    -0.23770
C3482       C  0.81493029  0.50573819  0.70034914     0.19120
F3483       F  0.81043416  0.51161672  0.71856202    -0.13730
F3484       F  0.78243630  0.51155359  0.69065812    -0.16100
F3485       F  0.85612300  0.48699822  0.67258239    -0.16100
F3486       F  0.82814925  0.48694296  0.64468226    -0.13730
C3487       C  0.66550025  0.48786247  0.82167752     0.24280
C3488       C  0.66779990  0.49895551  0.80475275    -0.23830
C3489       C  0.68467084  0.51011184  0.80244342     0.19180
C3490       C  0.69895975  0.51016224  0.81676433     0.24220
C3491       C  0.69666537  0.49905133  0.83367812    -0.23770
C3492       C  0.67978338  0.48791313  0.83599299     0.19120
F3493       F  0.67685541  0.47747900  0.85239130    -0.13730
F3494       F  0.64914893  0.47737682  0.82461882    -0.16100
F3495       F  0.71528968  0.52068873  0.81385841    -0.16100
F3496       F  0.68756308  0.52058747  0.78606691    -0.13730
C3497       C  0.82443894  0.00231220  0.83880396     0.24280
C3498       C  0.80503546  0.99914211  0.83377579    -0.23830
C3499       C  0.80006413  0.99608001  0.81431270     0.19180
C3500       C  0.81437644  0.99621551  0.79999150     0.24220
C3501       C  0.83377255  0.99943070  0.80501657    -0.23770
C3502       C  0.83874750  0.00245346  0.82448503     0.19120
F3503       F  0.85748332  0.00530412  0.82959028    -0.13730
F3504       F  0.82948960  0.00505894  0.85759708    -0.16100
F3505       F  0.80933955  0.99341074  0.78120420    -0.16100
F3506       F  0.78133565  0.99317272  0.80921841    -0.13730
C3507       C  0.48609333  0.81755011  0.66793462     0.24280
C3508       C  0.50071387  0.80334728  0.66730259    -0.23830
C3509       C  0.51534544  0.80395724  0.68150071     0.19180
C3510       C  0.51535770  0.81827888  0.69583733     0.24220
C3511       C  0.50074109  0.83248848  0.69646504    -0.23770
C3512       C  0.48610920  0.83187534  0.68226427     0.19120
F3513       F  0.47204458  0.84555076  0.68171663    -0.13730
F3514       F  0.47200844  0.81810142  0.65427338    -0.16100
F3515       F  0.52945903  0.81774323  0.70948075    -0.16100
F3516       F  0.52943662  0.79030816  0.68200875    -0.13730
C3517       C  0.48715824  0.66572089  0.81974246     0.24280
C3518       C  0.50069182  0.66619004  0.80449327    -0.23830
C3519       C  0.51425723  0.68141266  0.80396548     0.19180
C3520       C  0.51427965  0.69575951  0.81827703     0.24220
C3521       C  0.50073625  0.69529066  0.83352050    -0.23770
C3522       C  0.48718118  0.68006206  0.83404917     0.19120
F3523       F  0.47426709  0.67862720  0.84879107    -0.13730
F3524       F  0.47422052  0.65100498  0.82123147    -0.16100
F3525       F  0.52726766  0.71043601  0.81684082    -0.16100
F3526       F  0.52722320  0.68279387  0.78926446    -0.13730
C3527       C  0.80052670  0.68513273  0.50698064     0.24280
C3528       C  0.80484811  0.66628979  0.50067538    -0.23830
C3529       C  0.82366705  0.66192766  0.49441058     0.19180
C3530       C  0.83799561  0.67623660  0.49443889     0.24220
C3531       C  0.83368117  0.69508293  0.50073418    -0.23770
C3532       C  0.81486373  0.69945041  0.50700918     0.19120
F3533       F  0.81032911  0.71767314  0.51279848    -0.13730
F3534       F  0.78233138  0.68971069  0.51274821    -0.16100
F3535       F  0.85619401  0.67163760  0.48869437    -0.16100
F3536       F  0.82821938  0.64370016  0.48864502    -0.13730
C3537       C  0.68732045  0.79850280  0.49847457     0.24280
C3538       C  0.66778593  0.80363349  0.50035271    -0.23830
C3539       C  0.66267497  0.82318965  0.50236727     0.19180
C3540       C  0.67699133  0.83750443  0.50249143     0.24220
C3541       C  0.69652905  0.83237337  0.50060315    -0.23770
C3542       C  0.70163669  0.81281778  0.49859185     0.19120
F3543       F  0.72048553  0.80764328  0.49687640    -0.13730
F3544       F  0.69247116  0.77963071  0.49666914    -0.16100
F3545       F  0.67183667  0.85637474  0.50431822    -0.16100
F3546       F  0.64382547  0.82836294  0.50410073    -0.13730
C3547       C  0.70114378  0.68489205  0.00703963     0.24280
C3548       C  0.69683840  0.66609626  0.00056866    -0.23830
C3549       C  0.67807662  0.66178859  0.99409446     0.19180
C3550       C  0.66378178  0.67610034  0.99411154     0.24220
C3551       C  0.66807894  0.69489285  0.00059792    -0.23770
C3552       C  0.68684345  0.69920914  0.00705654     0.19120
F3553       F  0.69136784  0.71738967  0.01300774    -0.13730
F3554       F  0.71929756  0.68943197  0.01296764    -0.16100
F3555       F  0.64563115  0.67155276  0.98817436    -0.16100
F3556       F  0.67354309  0.64361092  0.98813581    -0.13730
C3557       C  0.01455947  0.68109790  0.69678367     0.24280
C3558       C  0.00086049  0.66598440  0.69647993    -0.23830
C3559       C  0.98704019  0.66569865  0.68149291     0.19180
C3560       C  0.98693407  0.68007388  0.66723607     0.24220
C3561       C  0.00064790  0.69517058  0.66752224    -0.23770
C3562       C  0.01445655  0.69547408  0.68251768     0.19120
F3563       F  0.02760472  0.71002198  0.68377909    -0.13730
F3564       F  0.02779109  0.68237034  0.71123477    -0.16100
F3565       F  0.97373079  0.67876850  0.65276037    -0.16100
F3566       F  0.97392929  0.65112151  0.68017706    -0.13730
C3567       C  0.68722269  0.00117347  0.70128028     0.24280
C3568       C  0.66766888  0.99943137  0.69616266    -0.23830
C3569       C  0.66251877  0.99749741  0.67660457     0.19180
C3570       C  0.67680951  0.99734232  0.66227188     0.24220
C3571       C  0.69636181  0.99911752  0.66738385    -0.23770
C3572       C  0.70151733  0.00102709  0.68694238     0.19120
F3573       F  0.72038488  0.00262460  0.69209454    -0.13730
F3574       F  0.69241037  0.00288109  0.72015639    -0.16100
F3575       F  0.67161826  0.99558384  0.64339956    -0.16100
F3576       F  0.64365514  0.99585333  0.67144752    -0.13730
C3577       C  0.98565420  0.31828411  0.30542039     0.24280
C3578       C  0.00046994  0.33231133  0.30459626    -0.23830
C3579       C  0.01530354  0.33146784  0.31858080     0.19180
C3580       C  0.01531748  0.31712073  0.33287545     0.24220
C3581       C  0.00049647  0.30310483  0.33370777    -0.23770
C3582       C  0.98566508  0.30393933  0.31972338     0.19120
F3583       F  0.97135378  0.29048710  0.31937563    -0.13730
F3584       F  0.97134009  0.31793211  0.29199484    -0.16100
F3585       F  0.02961169  0.31749316  0.34632322    -0.16100
F3586       F  0.02958695  0.34494810  0.31897669    -0.13730
C3587       C  0.01290370  0.17863847  0.16578015     0.24280
C3588       C  0.00045140  0.19469309  0.16717362    -0.23830
C3589       C  0.98799949  0.19608796  0.18324865     0.19180
C3590       C  0.98800921  0.18178927  0.19758448     0.24220
C3591       C  0.00047565  0.16574787  0.19619989    -0.23770
C3592       C  0.01291537  0.16434331  0.18011665     0.19120
F3593       F  0.02472822  0.14880864  0.17793858    -0.13730
F3594       F  0.02471123  0.17644766  0.15022199    -0.16100
F3595       F  0.97617055  0.18395060  0.21312194    -0.16100
F3596       F  0.97616103  0.21160389  0.18540887    -0.13730
C3597       C  0.82251547  0.49030745  0.33712375     0.24280
C3598       C  0.80463824  0.49936168  0.33379572    -0.23830
C3599       C  0.80129734  0.50852209  0.31594401     0.19180
C3600       C  0.81561653  0.50862219  0.30163316     0.24220
C3601       C  0.83348209  0.49955400  0.30495743    -0.23770
C3602       C  0.83682785  0.49040098  0.32281139     0.19120
F3603       F  0.85414323  0.48195598  0.32653800    -0.13730
F3604       F  0.82626840  0.48178876  0.35442697    -0.16100
F3605       F  0.81188449  0.51715736  0.28433561    -0.16100
F3606       F  0.78398073  0.51695991  0.31221526    -0.13730
C3607       C  0.00180587  0.67550990  0.33883969     0.24280
C3608       C  0.00058575  0.69512291  0.33368270    -0.23830
C3609       C  0.99937589  0.70027928  0.31406346     0.19180
C3610       C  0.99940042  0.68594272  0.29972560     0.24220
C3611       C  0.00063550  0.66632966  0.30488749    -0.23770
C3612       C  0.00182842  0.66117968  0.32450874     0.19120
F3613       F  0.00291899  0.64227057  0.32973168    -0.13730
F3614       F  0.00287930  0.67029443  0.35775589    -0.16100
F3615       F  0.99830552  0.69114958  0.28080993    -0.16100
F3616       F  0.99826298  0.71918935  0.30885270    -0.13730
C3617       C  0.82381110  0.33719604  0.49705054     0.24280
C3618       C  0.80440807  0.33229718  0.50045357    -0.23830
C3619       C  0.79933788  0.31292236  0.50387796     0.19180
C3620       C  0.81355635  0.29855321  0.50387545     0.24220
C3621       C  0.83294980  0.30344691  0.50044400    -0.23770
C3622       C  0.83802926  0.32282511  0.49704415     0.19120
F3623       F  0.85677427  0.32779433  0.49396883    -0.13730
F3624       F  0.82895045  0.35591656  0.49397713    -0.16100
F3625       F  0.80842924  0.27983610  0.50698482    -0.16100
F3626       F  0.78060138  0.30795510  0.50699093    -0.13730
C3627       C  0.01694061  0.31437531  0.67027499     0.24280
C3628       C  0.00044606  0.30278159  0.66679555    -0.23830
C3629       C  0.98396298  0.30629258  0.67839952     0.19180
C3630       C  0.98396284  0.32066984  0.69271883     0.24220
C3631       C  0.00049148  0.33224326  0.69626020    -0.23770
C3632       C  0.01697701  0.32870345  0.68463310     0.19120
F3633       F  0.03322510  0.33956794  0.68631440    -0.13730
F3634       F  0.03312147  0.31265779  0.65930997    -0.16100
F3635       F  0.96768073  0.32247560  0.70350796    -0.16100
F3636       F  0.96774369  0.29538472  0.67666126    -0.13730
C3637       C  0.66214882  0.17483991  0.49947291     0.24280
C3638       C  0.66728560  0.19447455  0.50057309    -0.23830
C3639       C  0.68687464  0.19969198  0.50163315     0.19180
C3640       C  0.70120233  0.18539569  0.50158367     0.24220
C3641       C  0.69605999  0.16576340  0.50047134    -0.23770
C3642       C  0.67647158  0.16054911  0.49942362     0.19120
F3643       F  0.67127595  0.14161831  0.49843507    -0.13730
F3644       F  0.64326373  0.16956663  0.49852385    -0.16100
F3645       F  0.72008880  0.19065797  0.50254906    -0.16100
F3646       F  0.69206458  0.21862185  0.50263809    -0.13730
C3647       C  0.01447569  0.19495799  0.81872686     0.24280
C3648       C  0.00063521  0.19472315  0.83370998    -0.23830
C3649       C  0.98679219  0.17973815  0.83393010     0.19180
C3650       C  0.98679247  0.16542027  0.81959761     0.24220
C3651       C  0.00064072  0.16565302  0.80462107    -0.23770
C3652       C  0.01447990  0.18063457  0.80439868     0.19120
F3653       F  0.02774484  0.18184147  0.78995345    -0.13730
F3654       F  0.02773497  0.20940826  0.81752104    -0.16100
F3655       F  0.97353813  0.15096287  0.82080667    -0.16100
F3656       F  0.97354316  0.17850381  0.84838926    -0.13730
C3657       C  0.83617007  0.17760479  0.01127631     0.24280
C3658       C  0.83376598  0.19460022  0.00033370    -0.23830
C3659       C  0.81676488  0.19701644  0.98944681     0.19180
C3660       C  0.80243026  0.18272168  0.98952276     0.24220
C3661       C  0.80483187  0.16573353  0.00047854    -0.23770
C3662       C  0.82184595  0.16330866  0.01134290     0.19120
F3663       F  0.82484642  0.14682986  0.02161173    -0.13730
F3664       F  0.85264918  0.17459727  0.02150271    -0.16100
F3665       F  0.78596391  0.18570684  0.97926965    -0.16100
F3666       F  0.81380514  0.21346608  0.97912291    -0.13730
C3667       C  0.51120883  0.31500319  0.80198234     0.24280
C3668       C  0.50045852  0.33209270  0.80453290    -0.23830
C3669       C  0.48977038  0.33459401  0.82168467     0.19180
C3670       C  0.48981900  0.32028380  0.83600196     0.24220
C3671       C  0.50055794  0.30318667  0.83345168    -0.23770
C3672       C  0.51125508  0.30068506  0.81630400     0.19120
F3673       F  0.52136552  0.28413599  0.81319573    -0.13730
F3674       F  0.52129260  0.31195220  0.78538816    -0.16100
F3675       F  0.47978258  0.32337579  0.85261877    -0.16100
F3676       F  0.47970019  0.35116311  0.82482519    -0.13730
C3677       C  0.70122289  0.31231771  0.00172232     0.24280
C3678       C  0.69611426  0.33194473  0.00057736    -0.23830
C3679       C  0.67654402  0.33714622  0.99935351     0.19180
C3680       C  0.66220280  0.32284976  0.99931406     0.24220
C3681       C  0.66730434  0.30322512  0.00049645    -0.23770
C3682       C  0.68687492  0.29801493  0.00168325     0.19120
F3683       F  0.69202706  0.27908743  0.00270649    -0.13730
F3684       F  0.72009591  0.30706611  0.00277672    -0.16100
F3685       F  0.64333253  0.32810692  0.99820782    -0.16100
F3686       F  0.67138288  0.35606956  0.99827874    -0.13730
C3687       C  0.33872907  0.32287858  0.00212369     0.24280
C3688       C  0.33355583  0.30331219  0.00026691    -0.23830
C3689       C  0.31399701  0.29820825  0.99843121     0.19180
C3690       C  0.29972891  0.31255577  0.99844604     0.24220
C3691       C  0.30490771  0.33212078  0.00029958    -0.23770
C3692       C  0.32446587  0.33722027  0.00214293     0.19120
F3693       F  0.32969369  0.35609334  0.00383176    -0.13730
F3694       F  0.35759507  0.32804003  0.00379272    -0.16100
F3695       F  0.28086059  0.30740343  0.99678866    -0.16100
F3696       F  0.30877504  0.27933420  0.99675613    -0.13730
C3697       C  0.18701838  0.19965290  0.99874583     0.24280
C3698       C  0.16747960  0.19448064  0.00061151    -0.23830
C3699       C  0.16237096  0.17489064  0.00239318     0.19180
C3700       C  0.17668543  0.16059514  0.00233382     0.24220
C3701       C  0.19622822  0.16577001  0.00049341    -0.23770
C3702       C  0.20133391  0.18535712  0.99869117     0.19120
F3703       F  0.22018246  0.19058185  0.99701302    -0.13730
F3704       F  0.19217612  0.21854693  0.99711034    -0.16100
F3705       F  0.17152144  0.14169866  0.00393509    -0.16100
F3706       F  0.14351924  0.16966139  0.00403921    -0.13730
C3707       C  0.31428262  0.49961591  0.79949456     0.24280
C3708       C  0.33388901  0.49921328  0.80470496    -0.23830
C3709       C  0.33903662  0.49874636  0.82435523     0.19180
C3710       C  0.32470878  0.49867398  0.83866969     0.24220
C3711       C  0.30510252  0.49906482  0.83346505    -0.23770
C3712       C  0.29994830  0.49954275  0.81381566     0.19120
F3713       F  0.28104759  0.49991812  0.80856312    -0.13730
F3714       F  0.30908502  0.50005177  0.78055153    -0.16100
F3715       F  0.32991502  0.49825389  0.85761220    -0.16100
F3716       F  0.35793595  0.49838652  0.82961825    -0.13730
C3717       C  0.33894478  0.67540868  0.00031696     0.24280
C3718       C  0.33380973  0.69506052  0.00029198    -0.23830
C3719       C  0.31420964  0.70029645  0.00032922     0.19180
C3720       C  0.29986240  0.68599213  0.00038997     0.24220
C3721       C  0.30500258  0.66633913  0.00041641    -0.23770
C3722       C  0.32460464  0.66111083  0.00037814     0.19120
F3723       F  0.32979380  0.64216398  0.00040774    -0.13730
F3724       F  0.35784262  0.67013081  0.00029535    -0.16100
F3725       F  0.28096455  0.69126288  0.00041387    -0.16100
F3726       F  0.30903304  0.71924564  0.00030246    -0.13730
C3727       C  0.19608396  0.81821416  0.98608565     0.24280
C3728       C  0.19642955  0.83260816  0.00056734    -0.23830
C3729       C  0.18199588  0.83222231  0.01498187     0.19180
C3730       C  0.16767344  0.81791592  0.01491467     0.24220
C3731       C  0.16731915  0.80351942  0.00043200    -0.23770
C3732       C  0.18175990  0.80390227  0.98601862     0.19120
F3733       F  0.18248858  0.79005199  0.97208762    -0.13730
F3734       F  0.20997667  0.81752448  0.97221111    -0.16100
F3735       F  0.15376110  0.81864672  0.02876674    -0.16100
F3736       F  0.18124569  0.84609688  0.02888977    -0.13730
C3737       C  0.20144044  0.00154303  0.81394728     0.24280
C3738       C  0.19635788  0.99949063  0.83351247    -0.23830
C3739       C  0.17686111  0.99724306  0.83868256     0.19180
C3740       C  0.16255341  0.99703942  0.82438943     0.24220
C3741       C  0.16763677  0.99907695  0.80481852    -0.23770
C3742       C  0.18713169  0.00134761  0.79965343     0.19120
F3743       F  0.19225363  0.00322520  0.78076979    -0.13730
F3744       F  0.22026055  0.00357165  0.80874346    -0.16100
F3745       F  0.14373394  0.99501436  0.82960114    -0.16100
F3746       F  0.17173890  0.99537353  0.85756907    -0.13730
C3747       C  0.29991683  0.00168865  0.31410686     0.24280
C3748       C  0.30492262  0.99889094  0.33359839    -0.23830
C3749       C  0.32437524  0.99614290  0.33865390     0.19180
C3750       C  0.33869752  0.99616418  0.32434444     0.24220
C3751       C  0.33369757  0.99894002  0.30484891    -0.23770
C3752       C  0.31424619  0.00171494  0.29979066     0.19120
F3753       F  0.30917407  0.00424974  0.28097982    -0.13730
F3754       F  0.28114613  0.00420356  0.30898342    -0.16100
F3755       F  0.35746994  0.99368933  0.32948455    -0.16100
F3756       F  0.32945871  0.99364962  0.35746875    -0.13730
C3757       C  0.20055537  0.99293405  0.18609253     0.24280
C3758       C  0.19621245  0.99903433  0.16719617    -0.23830
C3759       C  0.17738872  0.00521409  0.16278147     0.19180
C3760       C  0.16306818  0.00528094  0.17709400     0.24220
C3761       C  0.16740648  0.99917636  0.19598905    -0.23770
C3762       C  0.18622953  0.99300100  0.20041010     0.19120
F3763       F  0.19077781  0.98739972  0.21868350    -0.13730
F3764       F  0.21876436  0.98728829  0.19072272    -0.16100
F3765       F  0.14485875  0.01092501  0.17245591    -0.16100
F3766       F  0.17282961  0.01081662  0.14451013    -0.13730
C3767       C  0.31462421  0.79849984  0.49675439     0.24280
C3768       C  0.33393084  0.80346044  0.50061635    -0.23830
C3769       C  0.33876864  0.82284882  0.50435585     0.19180
C3770       C  0.32444321  0.83713195  0.50426471     0.24220
C3771       C  0.30513692  0.83217412  0.50042120    -0.23770
C3772       C  0.30029183  0.81279114  0.49666274     0.19120
F3773       F  0.28164991  0.80772686  0.49317704    -0.13730
F3774       F  0.30967400  0.77978943  0.49332643    -0.16100
F3775       F  0.32940245  0.85584658  0.50766783    -0.16100
F3776       F  0.35740999  0.82793214  0.50781850    -0.13730
C3777       C  0.33826751  0.00410361  0.67706391     0.24280
C3778       C  0.33367948  0.99865647  0.69610619    -0.23830
C3779       C  0.31461953  0.99339776  0.70073416     0.19180
C3780       C  0.30029463  0.99354192  0.68644515     0.24220
C3781       C  0.30489362  0.99896198  0.66739793    -0.23770
C3782       C  0.32394823  0.00425172  0.66278175     0.19120
F3783       F  0.32870316  0.00921512  0.64436522    -0.13730
F3784       F  0.35668265  0.00896639  0.67228714    -0.16100
F3785       F  0.28186932  0.98872095  0.69121964    -0.16100
F3786       F  0.30986805  0.98847067  0.71915877    -0.13730
C3787       C  0.50988222  0.82127035  0.33707104     0.24280
C3788       C  0.50068893  0.80341033  0.33379012    -0.23830
C3789       C  0.49148075  0.80008503  0.31595451     0.19180
C3790       C  0.49149186  0.81438695  0.30161728     0.24220
C3791       C  0.50071253  0.83223075  0.30489440    -0.23770
C3792       C  0.50989631  0.83556451  0.32273639     0.19120
F3793       F  0.51845800  0.85286769  0.32644451    -0.13730
F3794       F  0.51842271  0.82503890  0.35436227    -0.16100
F3795       F  0.48289994  0.81065741  0.28434371    -0.16100
F3796       F  0.48287871  0.78279979  0.31226463    -0.13730
C3797       C  0.70085018  0.00451449  0.31467529     0.24280
C3798       C  0.69629881  0.99897121  0.33370205    -0.23830
C3799       C  0.67727855  0.99351483  0.33828172     0.19180
C3800       C  0.66296444  0.99358538  0.32398632     0.24220
C3801       C  0.66751400  0.99912066  0.30495882    -0.23770
C3802       C  0.68653040  0.00458414  0.30037453     0.19120
F3803       F  0.69125133  0.00963725  0.28197559    -0.13730
F3804       F  0.71923148  0.00952390  0.30992529    -0.16100
F3805       F  0.64457997  0.98858992  0.32874568    -0.16100
F3806       F  0.67254264  0.98847505  0.35668145    -0.13730
C3807       C  0.17803065  0.66220536  0.50821116     0.24280
C3808       C  0.19639892  0.66605989  0.50041209    -0.23830
C3809       C  0.20028384  0.68440975  0.49254223     0.19180
C3810       C  0.18598322  0.69871658  0.49247084     0.24220
C3811       C  0.16761927  0.69485369  0.50026584    -0.23770
C3812       C  0.16373751  0.67650801  0.50814115     0.19120
F3813       F  0.14595644  0.67234323  0.51536832    -0.13730
F3814       F  0.17383007  0.64443532  0.51548334    -0.16100
F3815       F  0.19016630  0.71649148  0.48520427    -0.16100
F3816       F  0.21806850  0.68857485  0.48533044    -0.13730
C3817       C  0.48844203  0.68221524  0.19766366     0.24280
C3818       C  0.50087913  0.66614755  0.19625371    -0.23830
C3819       C  0.51328146  0.66473258  0.18014151     0.19180
C3820       C  0.51326339  0.67903036  0.16580732     0.24220
C3821       C  0.50083900  0.69510409  0.16721921    -0.23770
C3822       C  0.48842239  0.69651766  0.18332161     0.19120
F3823       F  0.47659915  0.71204418  0.18549187    -0.13730
F3824       F  0.47663019  0.68438914  0.21321974    -0.16100
F3825       F  0.52502606  0.67681247  0.15021914    -0.16100
F3826       F  0.52505096  0.64917198  0.17791866    -0.13730
C3827       C  0.66234641  0.49750121  0.17646674     0.24280
C3828       C  0.66742851  0.49903986  0.19608499    -0.23830
C3829       C  0.68699058  0.50063826  0.20125328     0.19180
C3830       C  0.70133565  0.50068682  0.18693543     0.24220
C3831       C  0.69624966  0.49913699  0.16731852    -0.23770
C3832       C  0.67668677  0.49754827  0.16215385     0.19120
F3833       F  0.67152516  0.49615711  0.14324411    -0.13730
F3834       F  0.64349007  0.49606999  0.17122409    -0.16100
F3835       F  0.72019246  0.50212707  0.19216981    -0.16100
F3836       F  0.69214483  0.50203784  0.22016309    -0.13730
C3837       C  0.82438167  0.99535278  0.16245197     0.24280
C3838       C  0.80506318  0.99917401  0.16736210    -0.23830
C3839       C  0.80014834  0.00293789  0.18672373     0.19180
C3840       C  0.81442971  0.00287225  0.20105389     0.24220
C3841       C  0.83374463  0.99903216  0.19614555    -0.23770
C3842       C  0.83866031  0.99528683  0.17677925     0.19120
F3843       F  0.85732154  0.99183575  0.17176715    -0.13730
F3844       F  0.82939199  0.99194034  0.14375045    -0.16100
F3845       F  0.80942611  0.00630068  0.21975274    -0.16100
F3846       F  0.78148884  0.00640443  0.19172713    -0.13730
C3847       C  0.01288769  0.83427337  0.17981770     0.24280
C3848       C  0.00078949  0.83257073  0.19612786    -0.23830
C3849       C  0.98873431  0.81622272  0.19776249     0.19180
C3850       C  0.98880202  0.80189418  0.18343611     0.24220
C3851       C  0.00092802  0.80358116  0.16714292    -0.23770
C3852       C  0.01295630  0.81994799  0.16549515     0.19120
F3853       F  0.02440716  0.82238964  0.14970809    -0.13730
F3854       F  0.02427893  0.85011192  0.17743029    -0.16100
F3855       F  0.97736681  0.78608408  0.18579145    -0.16100
F3856       F  0.97724212  0.81381581  0.21352432    -0.13730
C3857       C  0.48676359  0.19492963  0.68216456     0.24280
C3858       C  0.50054931  0.19468535  0.66713284    -0.23830
C3859       C  0.51436802  0.17970812  0.66685885     0.19180
C3860       C  0.51440043  0.16540583  0.68118656     0.24220
C3861       C  0.50061913  0.16565227  0.69622193    -0.23770
C3862       C  0.48679926  0.18062791  0.69649778     0.19120
F3863       F  0.47358657  0.18184624  0.71098974    -0.13730
F3864       F  0.47352038  0.20936605  0.68340851    -0.16100
F3865       F  0.52761179  0.15094166  0.67990842    -0.16100
F3866       F  0.52755868  0.17846346  0.65234844    -0.13730
C3867       C  0.20174898  0.49890210  0.68673937     0.24280
C3868       C  0.19650574  0.49881300  0.66711339    -0.23830
C3869       C  0.17688230  0.49883451  0.66196726     0.19180
C3870       C  0.16261374  0.49887021  0.67633533     0.24220
C3871       C  0.16785526  0.49888391  0.69596633    -0.23770
C3872       C  0.18747965  0.49894174  0.70110928     0.19120
F3873       F  0.19275515  0.49904213  0.72003568    -0.13730
F3874       F  0.22067444  0.49896279  0.69191870    -0.16100
F3875       F  0.14369003  0.49890477  0.67114672    -0.16100
F3876       F  0.17160771  0.49882984  0.64303792    -0.13730
C3877       C  0.31638155  0.48875973  0.19883945     0.24280
C3878       C  0.33366672  0.49915396  0.19615553    -0.23830
C3879       C  0.33642143  0.50956160  0.17887445     0.19180
C3880       C  0.32214487  0.50959240  0.16455053     0.24220
C3881       C  0.30485016  0.49921645  0.16724061    -0.23770
C3882       C  0.30210252  0.48878769  0.18450950     0.19120
F3883       F  0.28536585  0.47901471  0.18771000    -0.13730
F3884       F  0.31311506  0.47897259  0.21556847    -0.16100
F3885       F  0.32543883  0.51934021  0.14780267    -0.16100
F3886       F  0.35318081  0.51928662  0.17563936    -0.13730
C3887       C  0.17669030  0.50087971  0.33888560     0.24280
C3888       C  0.19622874  0.49905085  0.33369599    -0.23830
C3889       C  0.20128506  0.49721298  0.31408964     0.19180
C3890       C  0.18692920  0.49717811  0.29980639     0.24220
C3891       C  0.16738784  0.49897815  0.30500306    -0.23770
C3892       C  0.16234041  0.50084569  0.32460863     0.19120
F3893       F  0.14350439  0.50250421  0.32987570    -0.13730
F3894       F  0.17155905  0.50256137  0.35778743    -0.16100
F3895       F  0.19205597  0.49553328  0.28090176    -0.16100
F3896       F  0.22012560  0.49559172  0.30883098    -0.13730
C3897       C  0.16269655  0.32246615  0.49606187     0.24280
C3898       C  0.16745555  0.30316886  0.50029154    -0.23830
C3899       C  0.18670110  0.29834333  0.50456439     0.19180
C3900       C  0.20103513  0.31266921  0.50460206     0.24220
C3901       C  0.19626694  0.33196006  0.50036348    -0.23770
C3902       C  0.17702399  0.33678428  0.49610180     0.19120
F3903       F  0.17211348  0.35541621  0.49227989    -0.13730
F3904       F  0.14411728  0.32744101  0.49219490    -0.16100
F3905       F  0.21961505  0.30771766  0.50849457    -0.16100
F3906       F  0.19160438  0.27971803  0.50841436    -0.13730
C3907       C  0.31397695  0.19959016  0.49924583     0.24280
C3908       C  0.33355732  0.19440221  0.50028483    -0.23830
C3909       C  0.33871103  0.17478769  0.50138558     0.19180
C3910       C  0.32439391  0.16047281  0.50143246     0.24220
C3911       C  0.30481238  0.16566022  0.50037713    -0.23770
C3912       C  0.29965830  0.18527351  0.49928929     0.19120
F3913       F  0.28077048  0.19049514  0.49835045    -0.13730
F3914       F  0.30879089  0.21851104  0.49827100    -0.16100
F3915       F  0.32958336  0.14155270  0.50243453    -0.16100
F3916       F  0.35759818  0.16956270  0.50234959    -0.13730
C3917       C  0.51384242  0.33277610  0.18089241     0.24280
C3918       C  0.50055988  0.33205069  0.19634990    -0.23830
C3919       C  0.48727921  0.31659152  0.19708677     0.19180
C3920       C  0.48727816  0.30226114  0.18275816     0.24220
C3921       C  0.50055941  0.30299419  0.16730061    -0.23770
C3922       C  0.51384277  0.31844914  0.16657076     0.19120
F3923       F  0.52649968  0.32009970  0.15162809    -0.13730
F3924       F  0.52649908  0.34771787  0.17923350    -0.16100
F3925       F  0.47458237  0.28734826  0.18436886    -0.16100
F3926       F  0.47458705  0.31497936  0.21200219    -0.13730
C3927       C  0.51183610  0.17770881  0.33592491     0.24280
C3928       C  0.50060526  0.19453631  0.33373352    -0.23830
C3929       C  0.48935649  0.19673758  0.31691402     0.19180
C3930       C  0.48935014  0.18241665  0.30257892     0.24220
C3931       C  0.50059241  0.16559631  0.30476599    -0.23770
C3932       C  0.51182857  0.16339031  0.32159398     0.19120
F3933       F  0.52240357  0.14709108  0.32443103    -0.13730
F3934       F  0.52242167  0.17486064  0.35222081    -0.16100
F3935       F  0.47873268  0.18523963  0.28630066    -0.16100
F3936       F  0.47874603  0.21301737  0.31410576    -0.13730
loop_ 
_geom_bond_atom_site_label_1 
_geom_bond_atom_site_label_2 
_geom_bond_distance 
_geom_bond_site_symmetry_2 
_ccdc_geom_bond_type 
N1            N2   1.323       .  A
N1            C5   1.345       .  A
N1           Cu9   2.072       .  S
N2            C3   1.345       .  A
N2           Cu8   2.072       .  S
C3            C4   1.380       .  A
C3            H6   1.082       .  S
C4            C5   1.380       .  A
C4          C363   1.465       .  S
C5            H7   1.082       .  S
Cu8          N11   2.072       .  S
Cu9          N19   2.072       .  S
Cu10         N12   2.074       .  S
Cu10         N18   2.074       .  S
N11          N12   1.320       .  A
N11          C15   1.344       .  A
N12          C13   1.344       .  A
C13          C14   1.390       .  A
C13          H16   1.081       .  S
C14          C15   1.390       .  A
C14          C49   1.491       .  S
C15          H17   1.081       .  S
N18          N19   1.323       .  A
N18          C22   1.345       .  A
N19          C20   1.345       .  A
C20          C21   1.380       .  A
C20          H23   1.082       .  S
C21          C22   1.380       .  A
C21         C165   1.466       .  S
C22          H24   1.082       .  S
N25          N26   1.320       .  A
N25          C29   1.344       .  A
N25         Cu33   2.075       .  S
N26          C27   1.344       .  A
N26         Cu32   2.074       .  S
C27          C28   1.390       .  A
C27          H30   1.081       .  S
C28          C29   1.390       .  A
C28          C51   1.491       .  S
C29          H31   1.081       .  S
Cu32         N35   2.074       .  S
Cu33         N43   2.075       .  S
Cu34         N36   2.074       .  S
Cu34         N42   2.074       .  S
N35          N36   1.323       .  A
N35          C39   1.345       .  A
N36          C37   1.346       .  A
C37          C38   1.380       .  A
C37          H40   1.082       .  S
C38          C39   1.380       .  A
C38         C381   1.466       .  S
C39          H41   1.082       .  S
N42          N43   1.323       .  A
N42          C46   1.345       .  A
N43          C44   1.346       .  A
C44          C45   1.381       .  A
C44          H47   1.082       .  S
C45          C46   1.380       .  A
C45         C561   1.467       .  S
C46          H48   1.082       .  S
C49          C50   1.407       .  A
C49          C54   1.406       .  A
C50          C51   1.406       .  A
C50          H55   1.078       .  S
C51          C52   1.406       .  A
C52          C53   1.406       .  A
C52          H56   1.078       .  S
C53          C54   1.406       .  A
C53          C61   1.490       .  S
C54          H57   1.078       .  S
N58          N59   1.320       .  A
N58          C62   1.344       .  A
N58         Cu66   2.072       .  S
N59          C60   1.344       .  A
N59         Cu65   2.074       .  S
C60          C61   1.390       .  A
C60          H63   1.081       .  S
C61          C62   1.389       .  A
C62          H64   1.081       .  S
Cu65         N68   2.075       .  S
Cu66         N76   2.072       .  S
Cu67         N69   2.071       .  S
Cu67         N75   2.071       .  S
N68          N69   1.323       .  A
N68          C72   1.345       .  A
N69          C70   1.345       .  A
C70          C71   1.380       .  A
C70          H73   1.082       .  S
C71          C72   1.380       .  A
C71         C183   1.466       .  S
C72          H74   1.082       .  S
N75          N76   1.323       .  A
N75          C79   1.345       .  A
N76          C77   1.345       .  A
C77          C78   1.380       .  A
C77          H80   1.082       .  S
C78          C79   1.380       .  A
C78         C579   1.465       .  S
C79          H81   1.082       .  S
N82          N83   1.323       .  A
N82          C86   1.345       .  A
N82         Cu90   2.070       .  S
N83          C84   1.345       .  A
N83         Cu89   2.071       .  S
C84          C85   1.380       .  A
C84          H87   1.082       .  S
C85          C86   1.379       .  A
C85        C2505   1.464       .  S
C86          H88   1.082       .  S
Cu89         N92   2.071       .  S
Cu90        N100   2.070       .  S
Cu91         N93   2.072       .  S
Cu91         N99   2.072       .  S
N92          N93   1.320       .  A
N92          C96   1.344       .  A
N93          C94   1.344       .  A
C94          C95   1.390       .  A
C94          H97   1.081       .  S
C95          C96   1.389       .  A
C95         C132   1.490       .  S
C96          H98   1.081       .  S
N99         N100   1.323       .  A
N99         C103   1.345       .  A
N100        C101   1.345       .  A
C101        C102   1.380       .  A
C101        H104   1.082       .  S
C102        C103   1.380       .  A
C102       C2622   1.465       .  S
C103        H105   1.082       .  S
N106        N107   1.323       .  A
N106        C110   1.345       .  A
N106       Cu114   2.075       .  S
N107        C108   1.345       .  A
N107       Cu113   2.070       .  S
C108        C109   1.380       .  A
C108        H111   1.082       .  S
C109        C110   1.380       .  A
C109        C185   1.466       .  S
C110        H112   1.082       .  S
Cu113       N116   2.070       .  S
Cu114       N124   2.075       .  S
Cu115       N117   2.076       .  S
Cu115       N123   2.076       .  S
N116        N117   1.320       .  A
N116        C120   1.344       .  A
N117        C118   1.344       .  A
C118        C119   1.390       .  A
C118        H121   1.081       .  S
C119        C120   1.389       .  A
C119        C134   1.490       .  S
C120        H122   1.081       .  S
N123        N124   1.323       .  A
N123        C127   1.346       .  A
N124        C125   1.346       .  A
C125        C126   1.381       .  A
C125        H128   1.082       .  S
C126        C127   1.381       .  A
C126       C1155   1.467       .  S
C127        H129   1.082       .  S
C130        C131   1.406       .  A
C130        C135   1.406       .  A
C130        C152   1.491       .  S
C131        C132   1.406       .  A
C131        H136   1.078       .  S
C132        C133   1.406       .  A
C133        C134   1.405       .  A
C133        H137   1.078       .  S
C134        C135   1.406       .  A
C135        H138   1.078       .  S
N139        N140   1.323       .  A
N139        C143   1.345       .  A
N139       Cu147   2.073       .  S
N140        C141   1.345       .  A
N140       Cu146   2.072       .  S
C141        C142   1.380       .  A
C141        H144   1.082       .  S
C142        C143   1.380       .  A
C142        C167   1.466       .  S
C143        H145   1.082       .  S
Cu146       N149   2.072       .  S
Cu147       N157   2.073       .  S
Cu148       N150   2.075       .  S
Cu148       N156   2.075       .  S
N149        N150   1.320       .  A
N149        C153   1.344       .  A
N150        C151   1.344       .  A
C151        C152   1.390       .  A
C151        H154   1.081       .  S
C152        C153   1.389       .  A
C153        H155   1.081       .  S
N156        N157   1.323       .  A
N156        C160   1.345       .  A
N157        C158   1.345       .  A
C158        C159   1.380       .  A
C158        H161   1.082       .  S
C159        C160   1.381       .  A
C159       C2469   1.466       .  S
C160        H162   1.082       .  S
C163        C164   1.407       .  A
C163        C168   1.407       .  A
C163       C3928   1.485       .  S
C164        C165   1.401       .  A
C164        H169   1.084       .  S
C165        C166   1.399       .  A
C166        C167   1.399       .  A
C166        H170   1.084       .  S
C167        C168   1.401       .  A
C168        H171   1.084       .  S
C172        C173   1.407       .  A
C172        C177   1.407       .  A
C172       C3931   1.485       .  S
C173        C174   1.401       .  A
C173        H178   1.084       .  S
C174        C175   1.399       .  A
C174        C276   1.466       .  S
C175        C176   1.399       .  A
C175        H179   1.084       .  S
C176        C177   1.401       .  A
C176        C753   1.465       .  S
C177        H180   1.084       .  S
C181        C182   1.409       .  A
C181        C186   1.409       .  A
C181       C3918   1.491       .  S
C182        C183   1.401       .  A
C182        H187   1.083       .  S
C183        C184   1.398       .  A
C184        C185   1.398       .  A
C184        H188   1.084       .  S
C185        C186   1.401       .  A
C186        H189   1.083       .  S
C190        C191   1.409       .  A
C190        C195   1.409       .  A
C190       C3921   1.491       .  S
C191        C192   1.401       .  A
C191        H196   1.083       .  S
C192        C193   1.398       .  A
C192        C679   1.465       .  S
C193        C194   1.398       .  A
C193        H197   1.084       .  S
C194        C195   1.401       .  A
C194        C226   1.466       .  S
C195        H198   1.083       .  S
N199        N200   1.323       .  A
N199        C203   1.345       .  A
N199       Cu207   2.072       .  S
N200        C201   1.345       .  A
N200       Cu206   2.071       .  S
C201        C202   1.380       .  A
C201        H204   1.082       .  S
C202        C203   1.380       .  A
C202        C975   1.465       .  S
C203        H205   1.082       .  S
Cu206       N209   2.071       .  S
Cu207       N217   2.072       .  S
Cu208       N210   2.070       .  S
Cu208       N216   2.070       .  S
N209        N210   1.320       .  A
N209        C213   1.343       .  A
N210        C211   1.343       .  A
C211        C212   1.389       .  A
C211        H214   1.081       .  S
C212        C213   1.389       .  A
C212        C247   1.489       .  S
C213        H215   1.081       .  S
N216        N217   1.323       .  A
N216        C220   1.345       .  A
N217        C218   1.345       .  A
C218        C219   1.380       .  A
C218        H221   1.082       .  S
C219        C220   1.380       .  A
C219       C2352   1.464       .  S
C220        H222   1.082       .  S
N223        N224   1.323       .  A
N223        C227   1.345       .  A
N223       Cu231   2.074       .  S
N224        C225   1.345       .  A
N224       Cu230   2.070       .  S
C225        C226   1.380       .  A
C225        H228   1.082       .  S
C226        C227   1.380       .  A
C227        H229   1.082       .  S
Cu230       N233   2.070       .  S
Cu231       N241   2.074       .  S
Cu232       N234   2.073       .  S
Cu232       N240   2.073       .  S
N233        N234   1.320       .  A
N233        C237   1.343       .  A
N234        C235   1.344       .  A
C235        C236   1.390       .  A
C235        H238   1.081       .  S
C236        C237   1.389       .  A
C236        C251   1.489       .  S
C237        H239   1.081       .  S
N240        N241   1.323       .  A
N240        C244   1.345       .  A
N241        C242   1.345       .  A
C242        C243   1.380       .  A
C242        H245   1.082       .  S
C243        C244   1.380       .  A
C243       C2244   1.466       .  S
C244        H246   1.082       .  S
C247        C248   1.405       .  A
C247        C252   1.406       .  A
C248        C249   1.405       .  A
C248        H253   1.078       .  S
C249        C250   1.405       .  A
C249        C259   1.489       .  S
C250        C251   1.406       .  A
C250        H254   1.078       .  S
C251        C252   1.405       .  A
C252        H255   1.078       .  S
N256        N257   1.320       .  A
N256        C260   1.344       .  A
N256       Cu264   2.071       .  S
N257        C258   1.343       .  A
N257       Cu263   2.071       .  S
C258        C259   1.389       .  A
C258        H261   1.081       .  S
C259        C260   1.389       .  A
C260        H262   1.081       .  S
Cu263       N266   2.071       .  S
Cu264       N274   2.071       .  S
Cu265       N267   2.074       .  S
Cu265       N273   2.074       .  S
N266        N267   1.323       .  A
N266        C270   1.345       .  A
N267        C268   1.345       .  A
C268        C269   1.380       .  A
C268        H271   1.082       .  S
C269        C270   1.380       .  A
C269       C1380   1.465       .  S
C270        H272   1.082       .  S
N273        N274   1.323       .  A
N273        C277   1.345       .  A
N274        C275   1.345       .  A
C275        C276   1.380       .  A
C275        H278   1.082       .  S
C276        C277   1.380       .  A
C277        H279   1.082       .  S
N280        N281   1.323       .  A
N280        C284   1.345       .  A
N280       Cu288   2.073       .  S
N281        C282   1.345       .  A
N281       Cu287   2.072       .  S
C282        C283   1.380       .  A
C282        H285   1.082       .  S
C283        C284   1.380       .  A
C283       C2253   1.466       .  S
C284        H286   1.082       .  S
Cu287       N290   2.072       .  S
Cu288       N298   2.073       .  S
Cu289       N291   2.075       .  S
Cu289       N297   2.075       .  S
N290        N291   1.320       .  A
N290        C294   1.344       .  A
N291        C292   1.344       .  A
C292        C293   1.390       .  A
C292        H295   1.081       .  S
C293        C294   1.389       .  A
C293        C330   1.491       .  S
C294        H296   1.081       .  S
N297        N298   1.323       .  A
N297        C301   1.346       .  A
N298        C299   1.345       .  A
C299        C300   1.380       .  A
C299        H302   1.082       .  S
C300        C301   1.381       .  A
C300       C1938   1.466       .  S
C301        H303   1.082       .  S
N304        N305   1.323       .  A
N304        C308   1.344       .  A
N304       Cu312   2.069       .  S
N305        C306   1.345       .  A
N305       Cu311   2.073       .  S
C306        C307   1.380       .  A
C306        H309   1.082       .  S
C307        C308   1.379       .  A
C307        C365   1.464       .  S
C308        H310   1.082       .  S
Cu311       N314   2.073       .  S
Cu312       N322   2.069       .  S
Cu313       N315   2.076       .  S
Cu313       N321   2.076       .  S
N314        N315   1.320       .  A
N314        C318   1.344       .  A
N315        C316   1.345       .  A
C316        C317   1.390       .  A
C316        H319   1.081       .  S
C317        C318   1.390       .  A
C317        C328   1.491       .  S
C318        H320   1.081       .  S
N321        N322   1.323       .  A
N321        C325   1.345       .  A
N322        C323   1.345       .  A
C323        C324   1.380       .  A
C323        H326   1.082       .  S
C324        C325   1.381       .  A
C324        C858   1.466       .  S
C325        H327   1.082       .  S
C328        C329   1.406       .  A
C328        C333   1.406       .  A
C329        C330   1.407       .  A
C329        H334   1.078       .  S
C330        C331   1.406       .  A
C331        C332   1.406       .  A
C331        H335   1.078       .  S
C332        C333   1.406       .  A
C332        C350   1.491       .  S
C333        H336   1.078       .  S
N337        N338   1.323       .  A
N337        C341   1.345       .  A
N337       Cu345   2.073       .  S
N338        C339   1.345       .  A
N338       Cu344   2.073       .  S
C339        C340   1.380       .  A
C339        H342   1.082       .  S
C340        C341   1.380       .  A
C340        C383   1.466       .  S
C341        H343   1.082       .  S
Cu344       N347   2.073       .  S
Cu345       N355   2.073       .  S
Cu346       N348   2.073       .  S
Cu346       N354   2.073       .  S
N347        N348   1.320       .  A
N347        C351   1.344       .  A
N348        C349   1.344       .  A
C349        C350   1.390       .  A
C349        H352   1.081       .  S
C350        C351   1.390       .  A
C351        H353   1.081       .  S
N354        N355   1.323       .  A
N354        C358   1.345       .  A
N355        C356   1.345       .  A
C356        C357   1.380       .  A
C356        H359   1.082       .  S
C357        C358   1.380       .  A
C357        C759   1.466       .  S
C358        H360   1.082       .  S
C361        C362   1.403       .  A
C361        C366   1.402       .  A
C361       C3908   1.471       .  S
C362        C363   1.401       .  A
C362        H367   1.084       .  S
C363        C364   1.400       .  A
C364        C365   1.400       .  A
C364        H368   1.084       .  S
C365        C366   1.401       .  A
C366        H369   1.084       .  S
C370        C371   1.402       .  A
C370        C375   1.403       .  A
C370       C3911   1.471       .  S
C371        C372   1.401       .  A
C371        H376   1.084       .  S
C372        C373   1.400       .  A
C372        C441   1.464       .  S
C373        C374   1.400       .  A
C373        H377   1.084       .  S
C374        C375   1.401       .  A
C374       C1092   1.465       .  S
C375        H378   1.084       .  S
C379        C380   1.404       .  A
C379        C384   1.404       .  A
C379       C3901   1.475       .  S
C380        C381   1.402       .  A
C380        H385   1.084       .  S
C381        C382   1.400       .  A
C382        C383   1.400       .  A
C382        H386   1.084       .  S
C383        C384   1.402       .  A
C384        H387   1.084       .  S
C388        C389   1.404       .  A
C388        C393   1.404       .  A
C388       C3898   1.476       .  S
C389        C390   1.402       .  A
C389        H394   1.084       .  S
C390        C391   1.401       .  A
C390        C457   1.468       .  S
C391        C392   1.401       .  A
C391        H395   1.084       .  S
C392        C393   1.402       .  A
C392       C1099   1.467       .  S
C393        H396   1.084       .  S
N397        N398   1.323       .  A
N397        C401   1.344       .  A
N397       Cu405   2.070       .  S
N398        C399   1.345       .  A
N398       Cu404   2.070       .  S
C399        C400   1.380       .  A
C399        H402   1.082       .  S
C400        C401   1.379       .  A
C400       C1803   1.464       .  S
C401        H403   1.082       .  S
Cu404       N407   2.070       .  S
Cu405       N415   2.070       .  S
Cu406       N408   2.075       .  S
Cu406       N414   2.075       .  S
N407        N408   1.320       .  A
N407        C411   1.343       .  A
N408        C409   1.344       .  A
C409        C410   1.391       .  A
C409        H412   1.081       .  S
C410        C411   1.389       .  A
C410        C447   1.490       .  S
C411        H413   1.081       .  S
N414        N415   1.323       .  A
N414        C418   1.345       .  A
N415        C416   1.345       .  A
C416        C417   1.380       .  A
C416        H419   1.082       .  S
C417        C418   1.380       .  A
C417       C2370   1.465       .  S
C418        H420   1.082       .  S
N421        N422   1.323       .  A
N421        C425   1.345       .  A
N421       Cu429   2.071       .  S
N422        C423   1.344       .  A
N422       Cu428   2.070       .  S
C423        C424   1.380       .  A
C423        H426   1.082       .  S
C424        C425   1.380       .  A
C424       C1499   1.464       .  S
C425        H427   1.082       .  S
Cu428       N431   2.070       .  S
Cu429       N439   2.071       .  S
Cu430       N432   2.071       .  S
Cu430       N438   2.071       .  S
N431        N432   1.320       .  A
N431        C435   1.344       .  A
N432        C433   1.343       .  A
C433        C434   1.389       .  A
C433        H436   1.081       .  S
C434        C435   1.389       .  A
C434        C445   1.489       .  S
C435        H437   1.081       .  S
N438        N439   1.323       .  A
N438        C442   1.345       .  A
N439        C440   1.345       .  A
C440        C441   1.380       .  A
C440        H443   1.082       .  S
C441        C442   1.380       .  A
C442        H444   1.082       .  S
C445        C446   1.406       .  A
C445        C450   1.405       .  A
C446        C447   1.406       .  A
C446        H451   1.078       .  S
C447        C448   1.405       .  A
C448        C449   1.406       .  A
C448        H452   1.078       .  S
C449        C450   1.404       .  A
C449        C467   1.488       .  S
C450        H453   1.078       .  S
N454        N455   1.323       .  A
N454        C458   1.346       .  A
N454       Cu462   2.081       .  S
N455        C456   1.346       .  A
N455       Cu461   2.074       .  S
C456        C457   1.380       .  A
C456        H459   1.082       .  S
C457        C458   1.381       .  A
C458        H460   1.082       .  S
Cu461       N464   2.074       .  S
Cu462       N472   2.081       .  S
Cu463       N465   2.063       .  S
Cu463       N471   2.063       .  S
N464        N465   1.320       .  A
N464        C468   1.344       .  A
N465        C466   1.342       .  A
C466        C467   1.387       .  A
C466        H469   1.081       .  S
C467        C468   1.391       .  A
C468        H470   1.081       .  S
N471        N472   1.323       .  A
N471        C475   1.346       .  A
N472        C473   1.345       .  A
C473        C474   1.382       .  A
C473        H476   1.082       .  S
C474        C475   1.379       .  A
C474       C2496   1.467       .  S
C475        H477   1.082       .  S
N478        N479   1.323       .  A
N478        C482   1.345       .  A
N478       Cu486   2.074       .  S
N479        C480   1.345       .  A
N479       Cu485   2.073       .  S
C480        C481   1.380       .  A
C480        H483   1.082       .  S
C481        C482   1.380       .  A
C481       C1506   1.466       .  S
C482        H484   1.082       .  S
Cu485       N488   2.073       .  S
Cu486       N496   2.073       .  S
Cu487       N489   2.071       .  S
Cu487       N495   2.071       .  S
N488        N489   1.320       .  A
N488        C492   1.344       .  A
N489        C490   1.344       .  A
C490        C491   1.389       .  A
C490        H493   1.081       .  S
C491        C492   1.390       .  A
C491        C528   1.490       .  S
C492        H494   1.081       .  S
N495        N496   1.323       .  A
N495        C499   1.345       .  A
N496        C497   1.345       .  A
C497        C498   1.380       .  A
C497        H500   1.082       .  S
C498        C499   1.380       .  A
C498       C1389   1.465       .  S
C499        H501   1.082       .  S
N502        N503   1.323       .  A
N502        C506   1.345       .  A
N502       Cu510   2.071       .  S
N503        C504   1.345       .  A
N503       Cu509   2.071       .  S
C504        C505   1.380       .  A
C504        H507   1.082       .  S
C505        C506   1.380       .  A
C505        C581   1.464       .  S
C506        H508   1.082       .  S
Cu509       N512   2.071       .  S
Cu510       N520   2.071       .  S
Cu511       N513   2.074       .  S
Cu511       N519   2.074       .  S
N512        N513   1.320       .  A
N512        C516   1.344       .  A
N513        C514   1.344       .  A
C514        C515   1.390       .  A
C514        H517   1.081       .  S
C515        C516   1.389       .  A
C515        C526   1.490       .  S
C516        H518   1.081       .  S
N519        N520   1.323       .  A
N519        C523   1.345       .  A
N520        C521   1.345       .  A
C521        C522   1.380       .  A
C521        H524   1.082       .  S
C522        C523   1.380       .  A
C522       C1173   1.466       .  S
C523        H525   1.082       .  S
C526        C527   1.406       .  A
C526        C531   1.406       .  A
C527        C528   1.406       .  A
C527        H532   1.078       .  S
C528        C529   1.406       .  A
C529        C530   1.406       .  A
C529        H533   1.078       .  S
C530        C531   1.406       .  A
C530        C548   1.490       .  S
C531        H534   1.078       .  S
N535        N536   1.323       .  A
N535        C539   1.345       .  A
N535       Cu543   2.074       .  S
N536        C537   1.345       .  A
N536       Cu542   2.071       .  S
C537        C538   1.380       .  A
C537        H540   1.082       .  S
C538        C539   1.380       .  A
C538       C1353   1.465       .  S
C539        H541   1.082       .  S
Cu542       N545   2.071       .  S
Cu543       N553   2.074       .  S
Cu544       N546   2.074       .  S
Cu544       N552   2.074       .  S
N545        N546   1.320       .  A
N545        C549   1.343       .  A
N546        C547   1.344       .  A
C547        C548   1.390       .  A
C547        H550   1.081       .  S
C548        C549   1.389       .  A
C549        H551   1.081       .  S
N552        N553   1.323       .  A
N552        C556   1.345       .  A
N553        C554   1.345       .  A
C554        C555   1.380       .  A
C554        H557   1.082       .  S
C555        C556   1.380       .  A
C555        C563   1.466       .  S
C556        H558   1.082       .  S
C559        C560   1.404       .  A
C559        C564   1.403       .  A
C559       C3888   1.474       .  S
C560        C561   1.402       .  A
C560        H565   1.084       .  S
C561        C562   1.400       .  A
C562        C563   1.400       .  A
C562        H566   1.084       .  S
C563        C564   1.402       .  A
C564        H567   1.084       .  S
C568        C569   1.403       .  A
C568        C573   1.404       .  A
C568       C3891   1.474       .  S
C569        C570   1.402       .  A
C569        H574   1.084       .  S
C570        C571   1.401       .  A
C570        C672   1.467       .  S
C571        C572   1.401       .  A
C571        H575   1.084       .  S
C572        C573   1.402       .  A
C572       C1347   1.467       .  S
C573        H576   1.084       .  S
C577        C578   1.406       .  A
C577        C582   1.406       .  A
C577       C3878   1.482       .  S
C578        C579   1.401       .  A
C578        H583   1.084       .  S
C579        C580   1.399       .  A
C580        C581   1.399       .  A
C580        H584   1.084       .  S
C581        C582   1.401       .  A
C582        H585   1.084       .  S
C586        C587   1.406       .  A
C586        C591   1.406       .  A
C586       C3881   1.482       .  S
C587        C588   1.401       .  A
C587        H592   1.084       .  S
C588        C589   1.399       .  A
C588        C639   1.465       .  S
C589        C590   1.399       .  A
C589        H593   1.084       .  S
C590        C591   1.401       .  A
C590       C1290   1.465       .  S
C591        H594   1.084       .  S
N595        N596   1.320       .  A
N595        C599   1.343       .  A
N595       Cu603   2.070       .  S
N596        C597   1.344       .  A
N596       Cu602   2.072       .  S
C597        C598   1.390       .  A
C597        H600   1.081       .  S
C598        C599   1.389       .  A
C598        C645   1.489       .  S
C599        H601   1.081       .  S
Cu602       N605   2.072       .  S
Cu603       N613   2.070       .  S
Cu604       N606   2.074       .  S
Cu604       N612   2.074       .  S
N605        N606   1.323       .  A
N605        C609   1.345       .  A
N606        C607   1.345       .  A
C607        C608   1.381       .  A
C607        H610   1.082       .  S
C608        C609   1.380       .  A
C608        C957   1.466       .  S
C609        H611   1.082       .  S
N612        N613   1.323       .  A
N612        C616   1.344       .  A
N613        C614   1.346       .  A
C614        C615   1.380       .  A
C614        H617   1.082       .  S
C615        C616   1.380       .  A
C615       C1821   1.466       .  S
C616        H618   1.082       .  S
N619        N620   1.323       .  A
N619        C623   1.345       .  A
N619       Cu627   2.073       .  S
N620        C621   1.346       .  A
N620       Cu626   2.075       .  S
C621        C622   1.381       .  A
C621        H624   1.082       .  S
C622        C623   1.380       .  A
C622       C1929   1.466       .  S
C623        H625   1.082       .  S
Cu626       N629   2.075       .  S
Cu627       N637   2.073       .  S
Cu628       N630   2.071       .  S
Cu628       N636   2.071       .  S
N629        N630   1.320       .  A
N629        C633   1.344       .  A
N630        C631   1.344       .  A
C631        C632   1.389       .  A
C631        H634   1.081       .  S
C632        C633   1.390       .  A
C632        C647   1.490       .  S
C633        H635   1.081       .  S
N636        N637   1.323       .  A
N636        C640   1.345       .  A
N637        C638   1.345       .  A
C638        C639   1.380       .  A
C638        H641   1.082       .  S
C639        C640   1.380       .  A
C640        H642   1.082       .  S
C643        C644   1.406       .  A
C643        C648   1.407       .  A
C643        C665   1.490       .  S
C644        C645   1.405       .  A
C644        H649   1.078       .  S
C645        C646   1.405       .  A
C646        C647   1.405       .  A
C646        H650   1.078       .  S
C647        C648   1.407       .  A
C648        H651   1.078       .  S
N652        N653   1.323       .  A
N652        C656   1.345       .  A
N652       Cu660   2.074       .  S
N653        C654   1.345       .  A
N653       Cu659   2.074       .  S
C654        C655   1.381       .  A
C654        H657   1.082       .  S
C655        C656   1.380       .  A
C655       C2613   1.466       .  S
C656        H658   1.082       .  S
Cu659       N662   2.074       .  S
Cu660       N670   2.074       .  S
Cu661       N663   2.073       .  S
Cu661       N669   2.074       .  S
N662        N663   1.320       .  A
N662        C666   1.344       .  A
N663        C664   1.344       .  A
C664        C665   1.390       .  A
C664        H667   1.081       .  S
C665        C666   1.390       .  A
C666        H668   1.081       .  S
N669        N670   1.323       .  A
N669        C673   1.345       .  A
N670        C671   1.346       .  A
C671        C672   1.381       .  A
C671        H674   1.082       .  S
C672        C673   1.380       .  A
C673        H675   1.082       .  S
N676        N677   1.323       .  A
N676        C680   1.345       .  A
N676       Cu684   2.070       .  S
N677        C678   1.345       .  A
N677       Cu683   2.074       .  S
C678        C679   1.380       .  A
C678        H681   1.082       .  S
C679        C680   1.380       .  A
C680        H682   1.082       .  S
Cu683       N686   2.074       .  S
Cu684       N694   2.070       .  S
Cu685       N687   2.074       .  S
Cu685       N693   2.074       .  S
N686        N687   1.320       .  A
N686        C690   1.344       .  A
N687        C688   1.344       .  A
C688        C689   1.390       .  A
C688        H691   1.081       .  S
C689        C690   1.390       .  A
C689        C726   1.491       .  S
C690        H692   1.081       .  S
N693        N694   1.323       .  A
N693        C697   1.345       .  A
N694        C695   1.345       .  A
C695        C696   1.380       .  A
C695        H698   1.082       .  S
C696        C697   1.380       .  A
C696       C2136   1.465       .  S
C697        H699   1.082       .  S
N700        N701   1.320       .  A
N700        C704   1.344       .  A
N700       Cu708   2.073       .  S
N701        C702   1.344       .  A
N701       Cu707   2.074       .  S
C702        C703   1.390       .  A
C702        H705   1.081       .  S
C703        C704   1.390       .  A
C703        C728   1.491       .  S
C704        H706   1.081       .  S
Cu707       N710   2.074       .  S
Cu708       N718   2.073       .  S
Cu709       N711   2.071       .  S
Cu709       N717   2.071       .  S
N710        N711   1.323       .  A
N710        C714   1.345       .  A
N711        C712   1.345       .  A
C712        C713   1.380       .  A
C712        H715   1.082       .  S
C713        C714   1.380       .  A
C713       C1605   1.465       .  S
C714        H716   1.082       .  S
N717        N718   1.323       .  A
N717        C721   1.345       .  A
N718        C719   1.345       .  A
C719        C720   1.380       .  A
C719        H722   1.082       .  S
C720        C721   1.380       .  A
C720       C2046   1.465       .  S
C721        H723   1.082       .  S
C724        C725   1.406       .  A
C724        C729   1.406       .  A
C724        C736   1.491       .  S
C725        C726   1.406       .  A
C725        H730   1.078       .  S
C726        C727   1.406       .  A
C727        C728   1.406       .  A
C727        H731   1.078       .  S
C728        C729   1.406       .  A
C729        H732   1.078       .  S
N733        N734   1.320       .  A
N733        C737   1.344       .  A
N733       Cu741   2.074       .  S
N734        C735   1.344       .  A
N734       Cu740   2.073       .  S
C735        C736   1.390       .  A
C735        H738   1.081       .  S
C736        C737   1.390       .  A
C737        H739   1.081       .  S
Cu740       N743   2.073       .  S
Cu741       N751   2.073       .  S
Cu742       N744   2.072       .  S
Cu742       N750   2.072       .  S
N743        N744   1.323       .  A
N743        C747   1.345       .  A
N744        C745   1.345       .  A
C745        C746   1.380       .  A
C745        H748   1.082       .  S
C746        C747   1.380       .  A
C746       C1713   1.465       .  S
C747        H749   1.082       .  S
N750        N751   1.323       .  A
N750        C754   1.345       .  A
N751        C752   1.345       .  A
C752        C753   1.380       .  A
C752        H755   1.082       .  S
C753        C754   1.380       .  A
C754        H756   1.082       .  S
C757        C758   1.403       .  A
C757        C762   1.402       .  A
C757       C3868   1.472       .  S
C758        C759   1.402       .  A
C758        H763   1.084       .  S
C759        C760   1.400       .  A
C760        C761   1.400       .  A
C760        H764   1.084       .  S
C761        C762   1.401       .  A
C761        C852   1.464       .  S
C762        H765   1.084       .  S
C766        C767   1.402       .  A
C766        C771   1.403       .  A
C766       C3871   1.472       .  S
C767        C768   1.401       .  A
C767        H772   1.084       .  S
C768        C769   1.400       .  A
C768       C1974   1.465       .  S
C769        C770   1.400       .  A
C769        H773   1.084       .  S
C770        C771   1.402       .  A
C770       C2073   1.467       .  S
C771        H774   1.084       .  S
N775        N776   1.323       .  A
N775        C779   1.346       .  A
N775       Cu783   2.075       .  S
N776        C777   1.345       .  A
N776       Cu782   2.073       .  S
C777        C778   1.380       .  A
C777        H780   1.082       .  S
C778        C779   1.381       .  A
C778       C1940   1.466       .  S
C779        H781   1.082       .  S
Cu782       N785   2.073       .  S
Cu783       N793   2.074       .  S
Cu784       N786   2.071       .  S
Cu784       N792   2.071       .  S
N785        N786   1.320       .  A
N785        C789   1.344       .  A
N786        C787   1.343       .  A
C787        C788   1.389       .  A
C787        H790   1.081       .  S
C788        C789   1.390       .  A
C788        C827   1.490       .  S
C789        H791   1.081       .  S
N792        N793   1.323       .  A
N792        C796   1.346       .  A
N793        C794   1.345       .  A
C794        C795   1.380       .  A
C794        H797   1.082       .  S
C795        C796   1.380       .  A
C795       C3173   1.466       .  S
C796        H798   1.082       .  S
N799        N800   1.323       .  A
N799        C803   1.346       .  A
N799       Cu807   2.076       .  S
N800        C801   1.345       .  A
N800       Cu806   2.074       .  S
C801        C802   1.380       .  A
C801        H804   1.082       .  S
C802        C803   1.381       .  A
C802       C1508   1.467       .  S
C803        H805   1.082       .  S
Cu806       N809   2.074       .  S
Cu807       N817   2.076       .  S
Cu808       N810   2.067       .  S
Cu808       N816   2.067       .  S
N809        N810   1.320       .  A
N809        C813   1.344       .  A
N810        C811   1.343       .  A
C811        C812   1.388       .  A
C811        H814   1.081       .  S
C812        C813   1.390       .  A
C812        C825   1.489       .  S
C813        H815   1.081       .  S
N816        N817   1.323       .  A
N816        C820   1.346       .  A
N817        C818   1.344       .  A
C818        C819   1.381       .  A
C818        H821   1.082       .  S
C819        C820   1.380       .  A
C819       C3189   1.466       .  S
C820        H822   1.082       .  S
C823        C824   1.405       .  A
C823        C828   1.406       .  A
C823        C835   1.489       .  S
C824        C825   1.405       .  A
C824        H829   1.078       .  S
C825        C826   1.406       .  A
C826        C827   1.405       .  A
C826        H830   1.078       .  S
C827        C828   1.406       .  A
C828        H831   1.078       .  S
N832        N833   1.320       .  A
N832        C836   1.343       .  A
N832       Cu840   2.069       .  S
N833        C834   1.343       .  A
N833       Cu839   2.072       .  S
C834        C835   1.390       .  A
C834        H837   1.081       .  S
C835        C836   1.389       .  A
C836        H838   1.081       .  S
Cu839       N842   2.072       .  S
Cu840       N850   2.069       .  S
Cu841       N843   2.072       .  S
Cu841       N849   2.072       .  S
N842        N843   1.323       .  A
N842        C846   1.345       .  A
N843        C844   1.345       .  A
C844        C845   1.380       .  A
C844        H847   1.082       .  S
C845        C846   1.380       .  A
C845       C1355   1.465       .  S
C846        H848   1.082       .  S
N849        N850   1.323       .  A
N849        C853   1.345       .  A
N850        C851   1.345       .  A
C851        C852   1.380       .  A
C851        H854   1.082       .  S
C852        C853   1.380       .  A
C853        H855   1.082       .  S
C856        C857   1.409       .  A
C856        C861   1.409       .  A
C856       C3858   1.493       .  S
C857        C858   1.401       .  A
C857        H862   1.083       .  S
C858        C859   1.398       .  A
C859        C860   1.398       .  A
C859        H863   1.084       .  S
C860        C861   1.401       .  A
C860        C951   1.465       .  S
C861        H864   1.083       .  S
C865        C866   1.409       .  A
C865        C870   1.409       .  A
C865       C3861   1.493       .  S
C866        C867   1.401       .  A
C866        H871   1.083       .  S
C867        C868   1.397       .  A
C867       C2172   1.464       .  S
C868        C869   1.397       .  A
C868        H872   1.084       .  S
C869        C870   1.401       .  A
C869       C2289   1.465       .  S
C870        H873   1.083       .  S
N874        N875   1.323       .  A
N874        C878   1.345       .  A
N874       Cu882   2.072       .  S
N875        C876   1.345       .  A
N875       Cu881   2.072       .  S
C876        C877   1.380       .  A
C876        H879   1.082       .  S
C877        C878   1.380       .  A
C877       C2255   1.465       .  S
C878        H880   1.082       .  S
Cu881       N884   2.072       .  S
Cu882       N892   2.072       .  S
Cu883       N885   2.069       .  S
Cu883       N891   2.069       .  S
N884        N885   1.320       .  A
N884        C888   1.344       .  A
N885        C886   1.343       .  A
C886        C887   1.389       .  A
C886        H889   1.081       .  S
C887        C888   1.390       .  A
C887        C924   1.489       .  S
C888        H890   1.081       .  S
N891        N892   1.323       .  A
N891        C895   1.345       .  A
N892        C893   1.345       .  A
C893        C894   1.380       .  A
C893        H896   1.082       .  S
C894        C895   1.380       .  A
C894       C3306   1.465       .  S
C895        H897   1.082       .  S
N898        N899   1.323       .  A
N898        C902   1.344       .  A
N898       Cu906   2.071       .  S
N899        C900   1.345       .  A
N899       Cu905   2.068       .  S
C900        C901   1.379       .  A
C900        H903   1.082       .  S
C901        C902   1.380       .  A
C901       C2507   1.463       .  S
C902        H904   1.082       .  S
Cu905       N908   2.068       .  S
Cu906       N916   2.071       .  S
Cu907       N909   2.073       .  S
Cu907       N915   2.073       .  S
N908        N909   1.320       .  A
N908        C912   1.343       .  A
N909        C910   1.344       .  A
C910        C911   1.390       .  A
C910        H913   1.081       .  S
C911        C912   1.389       .  A
C911        C926   1.489       .  S
C912        H914   1.081       .  S
N915        N916   1.323       .  A
N915        C919   1.345       .  A
N916        C917   1.345       .  A
C917        C918   1.380       .  A
C917        H920   1.082       .  S
C918        C919   1.380       .  A
C918       C3326   1.465       .  S
C919        H921   1.082       .  S
C922        C923   1.405       .  A
C922        C927   1.405       .  A
C922        C934   1.489       .  S
C923        C924   1.405       .  A
C923        H928   1.078       .  S
C924        C925   1.405       .  A
C925        C926   1.405       .  A
C925        H929   1.078       .  S
C926        C927   1.406       .  A
C927        H930   1.078       .  S
N931        N932   1.320       .  A
N931        C935   1.343       .  A
N931       Cu939   2.068       .  S
N932        C933   1.344       .  A
N932       Cu938   2.073       .  S
C933        C934   1.390       .  A
C933        H936   1.081       .  S
C934        C935   1.389       .  A
C935        H937   1.081       .  S
Cu938       N941   2.073       .  S
Cu939       N949   2.068       .  S
Cu940       N942   2.075       .  S
Cu940       N948   2.075       .  S
N941        N942   1.323       .  A
N941        C945   1.345       .  A
N942        C943   1.345       .  A
C943        C944   1.381       .  A
C943        H946   1.082       .  S
C944        C945   1.380       .  A
C944       C2471   1.466       .  S
C945        H947   1.082       .  S
N948        N949   1.323       .  A
N948        C952   1.344       .  A
N949        C950   1.345       .  A
C950        C951   1.380       .  A
C950        H953   1.082       .  S
C951        C952   1.380       .  A
C952        H954   1.082       .  S
C955        C956   1.408       .  A
C955        C960   1.407   1_455  A
C955       C3851   1.487       .  S
C956        C957   1.402       .  A
C956        H961   1.084       .  S
C957        C958   1.399       .  A
C958        C959   1.399   1_455  A
C958        H962   1.084       .  S
C959        C960   1.401       .  A
C959       C2665   1.465       .  S
C960        H963   1.084       .  S
C964        C965   1.407   1_455  A
C964        C969   1.407       .  A
C964       C3848   1.487       .  S
C965        C966   1.401       .  A
C965        H970   1.084       .  S
C966        C967   1.398   1_655  A
C966       C1068   1.465       .  S
C967        C968   1.398       .  A
C967        H971   1.084       .  S
C968        C969   1.401       .  A
C968       C1747   1.465       .  S
C969        H972   1.084       .  S
C973        C974   1.403   1_565  A
C973        C978   1.403       .  A
C973       C3838   1.472       .  S
C974        C975   1.401       .  A
C974        H979   1.084       .  S
C975        C976   1.400   1_545  A
C976        C977   1.400       .  A
C976        H980   1.084       .  S
C977        C978   1.401       .  A
C977       C1442   1.464       .  S
C978        H981   1.084       .  S
C982        C983   1.403       .  A
C982        C987   1.403   1_565  A
C982       C3841   1.472       .  S
C983        C984   1.401       .  A
C983        H988   1.084       .  S
C984        C985   1.400       .  A
C984       C1061   1.465       .  S
C985        C986   1.400   1_565  A
C985        H989   1.084       .  S
C986        C987   1.401       .  A
C986       C2873   1.464       .  S
C987        H990   1.084       .  S
N991        N992   1.323       .  A
N991        C995   1.345       .  A
N991       Cu999   2.072       .  S
N992        C993   1.345       .  A
N992       Cu998   2.075       .  S
C993        C994   1.380       .  A
C993        H996   1.082       .  S
C994        C995   1.380       .  A
C994       C1371   1.466       .  S
C995        H997   1.082       .  S
Cu998      N1001   2.075       .  S
Cu999      N1009   2.072       .  S
Cu1000     N1002   2.071       .  S
Cu1000     N1008   2.071       .  S
N1001      N1002   1.320       .  A
N1001      C1005   1.344       .  A
N1002      C1003   1.344       .  A
C1003      C1004   1.389       .  A
C1003      H1006   1.081       .  S
C1004      C1005   1.390       .  A
C1004      C1041   1.490       .  S
C1005      H1007   1.081       .  S
N1008      N1009   1.323       .  A
N1008      C1012   1.345       .  A
N1009      C1010   1.345       .  A
C1010      C1011   1.380       .  A
C1010      H1013   1.082       .  S
C1011      C1012   1.380       .  A
C1011      C3063   1.464       .  S
C1012      H1014   1.082       .  S
N1015      N1016   1.323       .  A
N1015      C1019   1.345       .  A
N1015     Cu1023   2.072       .  S
N1016      C1017   1.345       .  A
N1016     Cu1022   2.073       .  S
C1017      C1018   1.380       .  A
C1017      H1020   1.082       .  S
C1018      C1019   1.380       .  A
C1018      C2604   1.466       .  S
C1019      H1021   1.082       .  S
Cu1022     N1025   2.073       .  S
Cu1023     N1033   2.072       .  S
Cu1024     N1026   2.076       .  S
Cu1024     N1032   2.076       .  S
N1025      N1026   1.320       .  A
N1025      C1029   1.344       .  A
N1026      C1027   1.344       .  A
C1027      C1028   1.390       .  A
C1027      H1030   1.081       .  S
C1028      C1029   1.390       .  A
C1028      C1043   1.491       .  S
C1029      H1031   1.081       .  S
N1032      N1033   1.323       .  A
N1032      C1036   1.345       .  A
N1033      C1034   1.345       .  A
C1034      C1035   1.380       .  A
C1034      H1037   1.082       .  S
C1035      C1036   1.381       .  A
C1035      C3081   1.466       .  S
C1036      H1038   1.082       .  S
C1039      C1040   1.406       .  A
C1039      C1044   1.406       .  A
C1039      C1051   1.491       .  S
C1040      C1041   1.406       .  A
C1040      H1045   1.078       .  S
C1041      C1042   1.406       .  A
C1042      C1043   1.406       .  A
C1042      H1046   1.078       .  S
C1043      C1044   1.406       .  A
C1044      H1047   1.078       .  S
N1048      N1049   1.320       .  A
N1048      C1052   1.344       .  A
N1048     Cu1056   2.073       .  S
N1049      C1050   1.344       .  A
N1049     Cu1055   2.073       .  S
C1050      C1051   1.390       .  A
C1050      H1053   1.081       .  S
C1051      C1052   1.390       .  A
C1052      H1054   1.081       .  S
Cu1055     N1058   2.073       .  S
Cu1056     N1066   2.073       .  S
Cu1057     N1059   2.070       .  S
Cu1057     N1065   2.070       .  S
N1058      N1059   1.323       .  A
N1058      C1062   1.345       .  A
N1059      C1060   1.345       .  A
C1060      C1061   1.380       .  A
C1060      H1063   1.082       .  S
C1061      C1062   1.380       .  A
C1062      H1064   1.082       .  S
N1065      N1066   1.323       .  A
N1065      C1069   1.345       .  A
N1066      C1067   1.345       .  A
C1067      C1068   1.380       .  A
C1067      H1070   1.082       .  S
C1068      C1069   1.380       .  A
C1069      H1071   1.082       .  S
N1072      N1073   1.320       .  A
N1072      C1076   1.343       .  A
N1072     Cu1080   2.070       .  S
N1073      C1074   1.344       .  A
N1073     Cu1079   2.070       .  S
C1074      C1075   1.389       .  A
C1074      H1077   1.081       .  S
C1075      C1076   1.389       .  A
C1075      C1120   1.489       .  S
C1076      H1078   1.081       .  S
Cu1079     N1082   2.070       .  S
Cu1080     N1090   2.070       .  S
Cu1081     N1083   2.073       .  S
Cu1081     N1089   2.073       .  S
N1082      N1083   1.323       .  A
N1082      C1086   1.345       .  A
N1083      C1084   1.345       .  A
C1084      C1085   1.380       .  A
C1084      H1087   1.082       .  S
C1085      C1086   1.380       .  A
C1085      C1704   1.465       .  S
C1086      H1088   1.082       .  S
N1089      N1090   1.323       .  A
N1089      C1093   1.345       .  A
N1090      C1091   1.345       .  A
C1091      C1092   1.380       .  A
C1091      H1094   1.082       .  S
C1092      C1093   1.380       .  A
C1093      H1095   1.082       .  S
N1096      N1097   1.323       .  A
N1096      C1100   1.346       .  A
N1096     Cu1104   2.077       .  S
N1097      C1098   1.345       .  A
N1097     Cu1103   2.074       .  S
C1098      C1099   1.380       .  A
C1098      H1101   1.082       .  S
C1099      C1100   1.381       .  A
C1100      H1102   1.082       .  S
Cu1103     N1106   2.074       .  S
Cu1104     N1114   2.077       .  S
Cu1105     N1107   2.068       .  S
Cu1105     N1113   2.068       .  S
N1106      N1107   1.320       .  A
N1106      C1110   1.344       .  A
N1107      C1108   1.343       .  A
C1108      C1109   1.389       .  A
C1108      H1111   1.081       .  S
C1109      C1110   1.390       .  A
C1109      C1122   1.489       .  S
C1110      H1112   1.081       .  S
N1113      N1114   1.323       .  A
N1113      C1117   1.346       .  A
N1114      C1115   1.344       .  A
C1115      C1116   1.381       .  A
C1115      H1118   1.082       .  S
C1116      C1117   1.380       .  A
C1116      C2829   1.466       .  S
C1117      H1119   1.082       .  S
C1120      C1121   1.406       .  A
C1120      C1125   1.406       .  A
C1121      C1122   1.405       .  A
C1121      H1126   1.078       .  S
C1122      C1123   1.405       .  A
C1123      C1124   1.405       .  A
C1123      H1127   1.078       .  S
C1124      C1125   1.406       .  A
C1124      C1132   1.490       .  S
C1125      H1128   1.078       .  S
N1129      N1130   1.320       .  A
N1129      C1133   1.343       .  A
N1129     Cu1137   2.072       .  S
N1130      C1131   1.344       .  A
N1130     Cu1136   2.072       .  S
C1131      C1132   1.390       .  A
C1131      H1134   1.081       .  S
C1132      C1133   1.390       .  A
C1133      H1135   1.081       .  S
Cu1136     N1139   2.072       .  S
Cu1137     N1147   2.072       .  S
Cu1138     N1140   2.072       .  S
Cu1138     N1146   2.072       .  S
N1139      N1140   1.323       .  A
N1139      C1143   1.345       .  A
N1140      C1141   1.345       .  A
C1141      C1142   1.380       .  A
C1141      H1144   1.082       .  S
C1142      C1143   1.380       .  A
C1142      C1614   1.465       .  S
C1143      H1145   1.082       .  S
N1146      N1147   1.323       .  A
N1146      C1150   1.345       .  A
N1147      C1148   1.345       .  A
C1148      C1149   1.380       .  A
C1148      H1151   1.082       .  S
C1149      C1150   1.380       .  A
C1149      C2721   1.465       .  S
C1150      H1152   1.082       .  S
C1153      C1154   1.404       .  A
C1153      C1158   1.404       .  A
C1153      C3828   1.475       .  S
C1154      C1155   1.402       .  A
C1154      H1159   1.084       .  S
C1155      C1156   1.401       .  A
C1156      C1157   1.401       .  A
C1156      H1160   1.084       .  S
C1157      C1158   1.402       .  A
C1157      C1266   1.467       .  S
C1158      H1161   1.084       .  S
C1162      C1163   1.404       .  A
C1162      C1167   1.404       .  A
C1162      C3831   1.475       .  S
C1163      C1164   1.402       .  A
C1163      H1168   1.084       .  S
C1164      C1165   1.401       .  A
C1164      C2658   1.467       .  S
C1165      C1166   1.401       .  A
C1165      H1169   1.084       .  S
C1166      C1167   1.402       .  A
C1166      C2740   1.467       .  S
C1167      H1170   1.084       .  S
C1171      C1172   1.408       .  A
C1171      C1176   1.408       .  A
C1171      C3818   1.489       .  S
C1172      C1173   1.401       .  A
C1172      H1177   1.084       .  S
C1173      C1174   1.399       .  A
C1174      C1175   1.399       .  A
C1174      H1178   1.084       .  S
C1175      C1176   1.402       .  A
C1175      C1259   1.466       .  S
C1176      H1179   1.084       .  S
C1180      C1181   1.408       .  A
C1180      C1185   1.408       .  A
C1180      C3821   1.488       .  S
C1181      C1182   1.401       .  A
C1181      H1186   1.084       .  S
C1182      C1183   1.398       .  A
C1182      C1425   1.466       .  S
C1183      C1184   1.398       .  A
C1183      H1187   1.084       .  S
C1184      C1185   1.402       .  A
C1184      C1641   1.466       .  S
C1185      H1188   1.084       .  S
N1189      N1190   1.323       .  A
N1189      C1193   1.345       .  A
N1189     Cu1197   2.072       .  S
N1190      C1191   1.345       .  A
N1190     Cu1196   2.075       .  S
C1191      C1192   1.380       .  A
C1191      H1194   1.082       .  S
C1192      C1193   1.380       .  A
C1192      C1391   1.466       .  S
C1193      H1195   1.082       .  S
Cu1196     N1199   2.074       .  S
Cu1197     N1207   2.072       .  S
Cu1198     N1200   2.070       .  S
Cu1198     N1206   2.070       .  S
N1199      N1200   1.320       .  A
N1199      C1203   1.344       .  A
N1200      C1201   1.343       .  A
C1201      C1202   1.389       .  A
C1201      H1204   1.081       .  S
C1202      C1203   1.390       .  A
C1202      C1241   1.490       .  S
C1203      H1205   1.081       .  S
N1206      N1207   1.323       .  A
N1206      C1210   1.345       .  A
N1207      C1208   1.345       .  A
C1208      C1209   1.380       .  A
C1208      H1211   1.082       .  S
C1209      C1210   1.380       .  A
C1209      C3054   1.464       .  S
C1210      H1212   1.082       .  S
N1213      N1214   1.323       .  A
N1213      C1217   1.345       .  A
N1213     Cu1221   2.072       .  S
N1214      C1215   1.345       .  A
N1214     Cu1220   2.071       .  S
C1215      C1216   1.380       .  A
C1215      H1218   1.082       .  S
C1216      C1217   1.380       .  A
C1216      C2624   1.465       .  S
C1217      H1219   1.082       .  S
Cu1220     N1223   2.071       .  S
Cu1221     N1231   2.072       .  S
Cu1222     N1224   2.075       .  S
Cu1222     N1230   2.075       .  S
N1223      N1224   1.320       .  A
N1223      C1227   1.343       .  A
N1224      C1225   1.344       .  A
C1225      C1226   1.390       .  A
C1225      H1228   1.081       .  S
C1226      C1227   1.389       .  A
C1226      C1239   1.490       .  S
C1227      H1229   1.081       .  S
N1230      N1231   1.323       .  A
N1230      C1234   1.345       .  A
N1231      C1232   1.345       .  A
C1232      C1233   1.380       .  A
C1232      H1235   1.082       .  S
C1233      C1234   1.381       .  A
C1233      C3072   1.466       .  S
C1234      H1236   1.082       .  S
C1237      C1238   1.406       .  A
C1237      C1242   1.406       .  A
C1237      C1249   1.490       .  S
C1238      C1239   1.406       .  A
C1238      H1243   1.078       .  S
C1239      C1240   1.406       .  A
C1240      C1241   1.406       .  A
C1240      H1244   1.078       .  S
C1241      C1242   1.406       .  A
C1242      H1245   1.078       .  S
N1246      N1247   1.320       .  A
N1246      C1250   1.344       .  A
N1246     Cu1254   2.075       .  S
N1247      C1248   1.344       .  A
N1247     Cu1253   2.071       .  S
C1248      C1249   1.389       .  A
C1248      H1251   1.081       .  S
C1249      C1250   1.390       .  A
C1250      H1252   1.081       .  S
Cu1253     N1256   2.071       .  S
Cu1254     N1264   2.075       .  S
Cu1255     N1257   2.076       .  S
Cu1255     N1263   2.076       .  S
N1256      N1257   1.323       .  A
N1256      C1260   1.345       .  A
N1257      C1258   1.345       .  A
C1258      C1259   1.381       .  A
C1258      H1261   1.082       .  S
C1259      C1260   1.380       .  A
C1260      H1262   1.082       .  S
N1263      N1264   1.323       .  A
N1263      C1267   1.346       .  A
N1264      C1265   1.346       .  A
C1265      C1266   1.381       .  A
C1265      H1268   1.082       .  S
C1266      C1267   1.381       .  A
C1267      H1269   1.082       .  S
N1270      N1271   1.323       .  A
N1270      C1274   1.345       .  A
N1270     Cu1278   2.072       .  S
N1271      C1272   1.345       .  A
N1271     Cu1277   2.071       .  S
C1272      C1273   1.380       .  A
C1272      H1275   1.082       .  S
C1273      C1274   1.380       .  A
C1273      C2145   1.465       .  S
C1274      H1276   1.082       .  S
Cu1277     N1280   2.071       .  S
Cu1278     N1288   2.072       .  S
Cu1279     N1281   2.070       .  S
Cu1279     N1287   2.070       .  S
N1280      N1281   1.320       .  A
N1280      C1284   1.344       .  A
N1281      C1282   1.343       .  A
C1282      C1283   1.389       .  A
C1282      H1285   1.081       .  S
C1283      C1284   1.389       .  A
C1283      C1320   1.489       .  S
C1284      H1286   1.081       .  S
N1287      N1288   1.323       .  A
N1287      C1291   1.345       .  A
N1288      C1289   1.345       .  A
C1289      C1290   1.380       .  A
C1289      H1292   1.082       .  S
C1290      C1291   1.380       .  A
C1291      H1293   1.082       .  S
N1294      N1295   1.323       .  A
N1294      C1298   1.345       .  A
N1294     Cu1302   2.073       .  S
N1295      C1296   1.345       .  A
N1295     Cu1301   2.071       .  S
C1296      C1297   1.380       .  A
C1296      H1299   1.082       .  S
C1297      C1298   1.380       .  A
C1297      C2730   1.465       .  S
C1298      H1300   1.082       .  S
Cu1301     N1304   2.071       .  S
Cu1302     N1312   2.073       .  S
Cu1303     N1305   2.072       .  S
Cu1303     N1311   2.072       .  S
N1304      N1305   1.320       .  A
N1304      C1308   1.343       .  A
N1305      C1306   1.344       .  A
C1306      C1307   1.390       .  A
C1306      H1309   1.081       .  S
C1307      C1308   1.389       .  A
C1307      C1318   1.490       .  S
C1308      H1310   1.081       .  S
N1311      N1312   1.323       .  A
N1311      C1315   1.345       .  A
N1312      C1313   1.345       .  A
C1313      C1314   1.380       .  A
C1313      H1316   1.082       .  S
C1314      C1315   1.380       .  A
C1314      C2037   1.465       .  S
C1315      H1317   1.082       .  S
C1318      C1319   1.406       .  A
C1318      C1323   1.405       .  A
C1319      C1320   1.406       .  A
C1319      H1324   1.078       .  S
C1320      C1321   1.405       .  A
C1321      C1322   1.405       .  A
C1321      H1325   1.078       .  S
C1322      C1323   1.406       .  A
C1322      C1340   1.489       .  S
C1323      H1326   1.078       .  S
N1327      N1328   1.323       .  A
N1327      C1331   1.345       .  A
N1327     Cu1335   2.077       .  S
N1328      C1329   1.346       .  A
N1328     Cu1334   2.068       .  S
C1329      C1330   1.380       .  A
C1329      H1332   1.082       .  S
C1330      C1331   1.381       .  A
C1330      C2820   1.466       .  S
C1331      H1333   1.082       .  S
Cu1334     N1337   2.068       .  S
Cu1335     N1345   2.077       .  S
Cu1336     N1338   2.074       .  S
Cu1336     N1344   2.074       .  S
N1337      N1338   1.320       .  A
N1337      C1341   1.343       .  A
N1338      C1339   1.344       .  A
C1339      C1340   1.390       .  A
C1339      H1342   1.081       .  S
C1340      C1341   1.388       .  A
C1341      H1343   1.081       .  S
N1344      N1345   1.323       .  A
N1344      C1348   1.345       .  A
N1345      C1346   1.346       .  A
C1346      C1347   1.381       .  A
C1346      H1349   1.082       .  S
C1347      C1348   1.380       .  A
C1348      H1350   1.082       .  S
C1351      C1352   1.404       .  A
C1351      C1356   1.404       .  A
C1351      C3808   1.477       .  S
C1352      C1353   1.401       .  A
C1352      H1357   1.084       .  S
C1353      C1354   1.400       .  A
C1354      C1355   1.400       .  A
C1354      H1358   1.084       .  S
C1355      C1356   1.401       .  A
C1356      H1359   1.084       .  S
C1360      C1361   1.404       .  A
C1360      C1365   1.405       .  A
C1360      C3811   1.477       .  S
C1361      C1362   1.400       .  A
C1361      H1366   1.084       .  S
C1362      C1363   1.399       .  A
C1362      C1525   1.464       .  S
C1363      C1364   1.399       .  A
C1363      H1367   1.084       .  S
C1364      C1365   1.402       .  A
C1364      C1740   1.465       .  S
C1365      H1368   1.084       .  S
C1369      C1370   1.404       .  A
C1369      C1374   1.403   1_565  A
C1369      C3798   1.475       .  S
C1370      C1371   1.402       .  A
C1370      H1375   1.084       .  S
C1371      C1372   1.400       .  A
C1372      C1373   1.400   1_565  A
C1372      H1376   1.084       .  S
C1373      C1374   1.401       .  A
C1373      C2849   1.465       .  S
C1374      H1377   1.084       .  S
C1378      C1379   1.404   1_565  A
C1378      C1383   1.403       .  A
C1378      C3801   1.474       .  S
C1379      C1380   1.402       .  A
C1379      H1384   1.084       .  S
C1380      C1381   1.400   1_545  A
C1381      C1382   1.400       .  A
C1381      H1385   1.084       .  S
C1382      C1383   1.401       .  A
C1382      C1475   1.465       .  S
C1383      H1386   1.084       .  S
C1387      C1388   1.405       .  A
C1387      C1392   1.405       .  A
C1387      C3788   1.480       .  S
C1388      C1389   1.401       .  A
C1388      H1393   1.084       .  S
C1389      C1390   1.400       .  A
C1390      C1391   1.399       .  A
C1390      H1394   1.084       .  S
C1391      C1392   1.401       .  A
C1392      H1395   1.084       .  S
C1396      C1397   1.405       .  A
C1396      C1401   1.405       .  A
C1396      C3791   1.479       .  S
C1397      C1398   1.401       .  A
C1397      H1402   1.084       .  S
C1398      C1399   1.399       .  A
C1398      C1698   1.465       .  S
C1399      C1400   1.399       .  A
C1399      H1403   1.084       .  S
C1400      C1401   1.401       .  A
C1400      C1482   1.465       .  S
C1401      H1404   1.084       .  S
N1405      N1406   1.323       .  A
N1405      C1409   1.345       .  A
N1405     Cu1413   2.075       .  S
N1406      C1407   1.345       .  A
N1406     Cu1412   2.071       .  S
C1407      C1408   1.380       .  A
C1407      H1410   1.082       .  S
C1408      C1409   1.381       .  A
C1408      C3036   1.466       .  S
C1409      H1411   1.082       .  S
Cu1412     N1415   2.071       .  S
Cu1413     N1423   2.075       .  S
Cu1414     N1416   2.070       .  S
Cu1414     N1422   2.070       .  S
N1415      N1416   1.320       .  A
N1415      C1419   1.343       .  A
N1416      C1417   1.343       .  A
C1417      C1418   1.389       .  A
C1417      H1420   1.081       .  S
C1418      C1419   1.390       .  A
C1418      C1457   1.489       .  S
C1419      H1421   1.081       .  S
N1422      N1423   1.323       .  A
N1422      C1426   1.345       .  A
N1423      C1424   1.345       .  A
C1424      C1425   1.381       .  A
C1424      H1427   1.082       .  S
C1425      C1426   1.380       .  A
C1426      H1428   1.082       .  S
N1429      N1430   1.320       .  A
N1429      C1433   1.343       .  A
N1429     Cu1437   2.072       .  S
N1430      C1431   1.344       .  A
N1430     Cu1436   2.071       .  S
C1431      C1432   1.389       .  A
C1431      H1434   1.081       .  S
C1432      C1433   1.390       .  A
C1432      C1453   1.489       .  S
C1433      H1435   1.081       .  S
Cu1436     N1439   2.071       .  S
Cu1437     N1447   2.072       .  S
Cu1438     N1440   2.070       .  S
Cu1438     N1446   2.070       .  S
N1439      N1440   1.323       .  A
N1439      C1443   1.345       .  A
N1440      C1441   1.345       .  A
C1441      C1442   1.380       .  A
C1441      H1444   1.082       .  S
C1442      C1443   1.380       .  A
C1443      H1445   1.082       .  S
N1446      N1447   1.323       .  A
N1446      C1450   1.345       .  A
N1447      C1448   1.345       .  A
C1448      C1449   1.380       .  A
C1448      H1451   1.082       .  S
C1449      C1450   1.380       .  A
C1449      C3353   1.465       .  S
C1450      H1452   1.082       .  S
C1453      C1454   1.406       .  A
C1453      C1458   1.405       .  A
C1454      C1455   1.406       .  A
C1454      H1459   1.078       .  S
C1455      C1456   1.406       .  A
C1455      C1465   1.490       .  S
C1456      C1457   1.405       .  A
C1456      H1460   1.078       .  S
C1457      C1458   1.405       .  A
C1458      H1461   1.078       .  S
N1462      N1463   1.320       .  A
N1462      C1466   1.344       .  A
N1462     Cu1470   2.073       .  S
N1463      C1464   1.344       .  A
N1463     Cu1469   2.072       .  S
C1464      C1465   1.389       .  A
C1464      H1467   1.081       .  S
C1465      C1466   1.390       .  A
C1466      H1468   1.081       .  S
Cu1469     N1472   2.072       .  S
Cu1470     N1480   2.073       .  S
Cu1471     N1473   2.070       .  S
Cu1471     N1479   2.070       .  S
N1472      N1473   1.323       .  A
N1472      C1476   1.345       .  A
N1473      C1474   1.345       .  A
C1474      C1475   1.380       .  A
C1474      H1477   1.082       .  S
C1475      C1476   1.380       .  A
C1476      H1478   1.082       .  S
N1479      N1480   1.323       .  A
N1479      C1483   1.345       .  A
N1480      C1481   1.345       .  A
C1481      C1482   1.380       .  A
C1481      H1484   1.082       .  S
C1482      C1483   1.379       .  A
C1483      H1485   1.082       .  S
C1486      C1487   1.404       .  A
C1486      C1491   1.403   1_565  A
C1486      C3778   1.474       .  S
C1487      C1488   1.402       .  A
C1487      H1492   1.084       .  S
C1488      C1489   1.400       .  A
C1488      C1864   1.466       .  S
C1489      C1490   1.400   1_565  A
C1489      H1493   1.084       .  S
C1490      C1491   1.400       .  A
C1490      C2165   1.464       .  S
C1491      H1494   1.084       .  S
C1495      C1496   1.403       .  A
C1495      C1500   1.403   1_565  A
C1495      C3781   1.474       .  S
C1496      C1497   1.401       .  A
C1496      H1501   1.084       .  S
C1497      C1498   1.399       .  A
C1497      C1582   1.464       .  S
C1498      C1499   1.399   1_565  A
C1498      H1502   1.084       .  S
C1499      C1500   1.401       .  A
C1500      H1503   1.084       .  S
C1504      C1505   1.403       .  A
C1504      C1509   1.404       .  A
C1504      C3768   1.474       .  S
C1505      C1506   1.402       .  A
C1505      H1510   1.084       .  S
C1506      C1507   1.400       .  A
C1507      C1508   1.400       .  A
C1507      H1511   1.084       .  S
C1508      C1509   1.402       .  A
C1509      H1512   1.084       .  S
C1513      C1514   1.403       .  A
C1513      C1518   1.404       .  A
C1513      C3771   1.474       .  S
C1514      C1515   1.401       .  A
C1514      H1519   1.084       .  S
C1515      C1516   1.400       .  A
C1515      C1599   1.465       .  S
C1516      C1517   1.400       .  A
C1516      H1520   1.084       .  S
C1517      C1518   1.402       .  A
C1517      C1797   1.465       .  S
C1518      H1521   1.084       .  S
N1522      N1523   1.323       .  A
N1522      C1526   1.344       .  A
N1522     Cu1530   2.068       .  S
N1523      C1524   1.345       .  A
N1523     Cu1529   2.071       .  S
C1524      C1525   1.380       .  A
C1524      H1527   1.082       .  S
C1525      C1526   1.379       .  A
C1526      H1528   1.082       .  S
Cu1529     N1532   2.071       .  S
Cu1530     N1540   2.068       .  S
Cu1531     N1533   2.075       .  S
Cu1531     N1539   2.075       .  S
N1532      N1533   1.320       .  A
N1532      C1536   1.343       .  A
N1533      C1534   1.344       .  A
C1534      C1535   1.390       .  A
C1534      H1537   1.081       .  S
C1535      C1536   1.389       .  A
C1535      C1570   1.490       .  S
C1536      H1538   1.081       .  S
N1539      N1540   1.323       .  A
N1539      C1543   1.345       .  A
N1540      C1541   1.345       .  A
C1541      C1542   1.379       .  A
C1541      H1544   1.082       .  S
C1542      C1543   1.380       .  A
C1542      C2946   1.465       .  S
C1543      H1545   1.082       .  S
N1546      N1547   1.320       .  A
N1546      C1550   1.344       .  A
N1546     Cu1554   2.073       .  S
N1547      C1548   1.342       .  A
N1547     Cu1553   2.066       .  S
C1548      C1549   1.388       .  A
C1548      H1551   1.081       .  S
C1549      C1550   1.390       .  A
C1549      C1572   1.488       .  S
C1550      H1552   1.081       .  S
Cu1553     N1556   2.066       .  S
Cu1554     N1564   2.073       .  S
Cu1555     N1557   2.071       .  S
Cu1555     N1563   2.071       .  S
N1556      N1557   1.322       .  A
N1556      C1560   1.345       .  A
N1557      C1558   1.344       .  A
C1558      C1559   1.380       .  A
C1558      H1561   1.082       .  S
C1559      C1560   1.379       .  A
C1559      C3360   1.464       .  S
C1560      H1562   1.082       .  S
N1563      N1564   1.323       .  A
N1563      C1567   1.345       .  A
N1564      C1565   1.345       .  A
C1565      C1566   1.380       .  A
C1565      H1568   1.082       .  S
C1566      C1567   1.380       .  A
C1566      C1805   1.465       .  S
C1567      H1569   1.082       .  S
C1570      C1571   1.405       .  A
C1570      C1575   1.406       .  A
C1571      C1572   1.406       .  A
C1571      H1576   1.078       .  S
C1572      C1573   1.404       .  A
C1573      C1574   1.405       .  A
C1573      H1577   1.078       .  S
C1574      C1575   1.406       .  A
C1574      C1592   1.489       .  S
C1575      H1578   1.078       .  S
N1579      N1580   1.323       .  A
N1579      C1583   1.345       .  A
N1579     Cu1587   2.072       .  S
N1580      C1581   1.345       .  A
N1580     Cu1586   2.069       .  S
C1581      C1582   1.379       .  A
C1581      H1584   1.082       .  S
C1582      C1583   1.380       .  A
C1583      H1585   1.082       .  S
Cu1586     N1589   2.069       .  S
Cu1587     N1597   2.072       .  S
Cu1588     N1590   2.071       .  S
Cu1588     N1596   2.071       .  S
N1589      N1590   1.320       .  A
N1589      C1593   1.343       .  A
N1590      C1591   1.344       .  A
C1591      C1592   1.389       .  A
C1591      H1594   1.081       .  S
C1592      C1593   1.389       .  A
C1593      H1595   1.081       .  S
N1596      N1597   1.323       .  A
N1596      C1600   1.345       .  A
N1597      C1598   1.345       .  A
C1598      C1599   1.380       .  A
C1598      H1601   1.082       .  S
C1599      C1600   1.380       .  A
C1600      H1602   1.082       .  S
C1603      C1604   1.404   1_565  A
C1603      C1608   1.404       .  A
C1603      C3758   1.476       .  S
C1604      C1605   1.401       .  A
C1604      H1609   1.084       .  S
C1605      C1606   1.400   1_545  A
C1606      C1607   1.400       .  A
C1606      H1610   1.084       .  S
C1607      C1608   1.402       .  A
C1607      C1658   1.466       .  S
C1608      H1611   1.084       .  S
C1612      C1613   1.404   1_565  A
C1612      C1617   1.404       .  A
C1612      C3761   1.475       .  S
C1613      C1614   1.401       .  A
C1613      H1618   1.084       .  S
C1614      C1615   1.400   1_545  A
C1615      C1616   1.400       .  A
C1615      H1619   1.084       .  S
C1616      C1617   1.401       .  A
C1616      C1757   1.465       .  S
C1617      H1620   1.084       .  S
N1621      N1622   1.323       .  A
N1621      C1625   1.345       .  A
N1621     Cu1629   2.072       .  S
N1622      C1623   1.345       .  A
N1622     Cu1628   2.074       .  S
C1623      C1624   1.380       .  A
C1623      H1626   1.082       .  S
C1624      C1625   1.380       .  A
C1624      C1920   1.465       .  S
C1625      H1627   1.082       .  S
Cu1628     N1631   2.074       .  S
Cu1629     N1639   2.072       .  S
Cu1630     N1632   2.073       .  S
Cu1630     N1638   2.073       .  S
N1631      N1632   1.320       .  A
N1631      C1635   1.344       .  A
N1632      C1633   1.344       .  A
C1633      C1634   1.390       .  A
C1633      H1636   1.081       .  S
C1634      C1635   1.390       .  A
C1634      C1671   1.490       .  S
C1635      H1637   1.081       .  S
N1638      N1639   1.323       .  A
N1638      C1642   1.345       .  A
N1639      C1640   1.345       .  A
C1640      C1641   1.380       .  A
C1640      H1643   1.082       .  S
C1641      C1642   1.380       .  A
C1642      H1644   1.082       .  S
N1645      N1646   1.320       .  A
N1645      C1649   1.343       .  A
N1645     Cu1653   2.067       .  S
N1646      C1647   1.344       .  A
N1646     Cu1652   2.073       .  S
C1647      C1648   1.390       .  A
C1647      H1650   1.081       .  S
C1648      C1649   1.388       .  A
C1648      C1669   1.489       .  S
C1649      H1651   1.081       .  S
Cu1652     N1655   2.073       .  S
Cu1653     N1663   2.067       .  S
Cu1654     N1656   2.075       .  S
Cu1654     N1662   2.075       .  S
N1655      N1656   1.323       .  A
N1655      C1659   1.345       .  A
N1656      C1657   1.345       .  A
C1657      C1658   1.381       .  A
C1657      H1660   1.082       .  S
C1658      C1659   1.380       .  A
C1659      H1661   1.082       .  S
N1662      N1663   1.323       .  A
N1662      C1666   1.344       .  A
N1663      C1664   1.345       .  A
C1664      C1665   1.380       .  A
C1664      H1667   1.082       .  S
C1665      C1666   1.381       .  A
C1665      C1830   1.465       .  S
C1666      H1668   1.082       .  S
C1669      C1670   1.406       .  A
C1669      C1674   1.405       .  A
C1670      C1671   1.406       .  A
C1670      H1675   1.078       .  S
C1671      C1672   1.406       .  A
C1672      C1673   1.406       .  A
C1672      H1676   1.078       .  S
C1673      C1674   1.405       .  A
C1673      C1681   1.489       .  S
C1674      H1677   1.078       .  S
N1678      N1679   1.320       .  A
N1678      C1682   1.343       .  A
N1678     Cu1686   2.069       .  S
N1679      C1680   1.343       .  A
N1679     Cu1685   2.072       .  S
C1680      C1681   1.390       .  A
C1680      H1683   1.081       .  S
C1681      C1682   1.389       .  A
C1682      H1684   1.081       .  S
Cu1685     N1688   2.072       .  S
Cu1686     N1696   2.069       .  S
Cu1687     N1689   2.073       .  S
Cu1687     N1695   2.073       .  S
N1688      N1689   1.323       .  A
N1688      C1692   1.345       .  A
N1689      C1690   1.345       .  A
C1690      C1691   1.380       .  A
C1690      H1693   1.082       .  S
C1691      C1692   1.380       .  A
C1691      C1715   1.466       .  S
C1692      H1694   1.082       .  S
N1695      N1696   1.323       .  A
N1695      C1699   1.345       .  A
N1696      C1697   1.345       .  A
C1697      C1698   1.379       .  A
C1697      H1700   1.082       .  S
C1698      C1699   1.380       .  A
C1699      H1701   1.082       .  S
C1702      C1703   1.403   1_565  A
C1702      C1707   1.403       .  A
C1702      C3748   1.473       .  S
C1703      C1704   1.401       .  A
C1703      H1708   1.084       .  S
C1704      C1705   1.400   1_545  A
C1705      C1706   1.400       .  A
C1705      H1709   1.084       .  S
C1706      C1707   1.401       .  A
C1706      C1790   1.465       .  S
C1707      H1710   1.084       .  S
C1711      C1712   1.403   1_565  A
C1711      C1716   1.403       .  A
C1711      C3751   1.473       .  S
C1712      C1713   1.401       .  A
C1712      H1717   1.084       .  S
C1713      C1714   1.400   1_545  A
C1714      C1715   1.400       .  A
C1714      H1718   1.084       .  S
C1715      C1716   1.401       .  A
C1716      H1719   1.084       .  S
N1720      N1721   1.323       .  A
N1720      C1724   1.345       .  A
N1720     Cu1728   2.074       .  S
N1721      C1722   1.345       .  A
N1721     Cu1727   2.073       .  S
C1722      C1723   1.380       .  A
C1722      H1725   1.082       .  S
C1723      C1724   1.380       .  A
C1723      C2606   1.466       .  S
C1724      H1726   1.082       .  S
Cu1727     N1730   2.073       .  S
Cu1728     N1738   2.074       .  S
Cu1729     N1731   2.070       .  S
Cu1729     N1737   2.070       .  S
N1730      N1731   1.320       .  A
N1730      C1734   1.344       .  A
N1731      C1732   1.343       .  A
C1732      C1733   1.389       .  A
C1732      H1735   1.081       .  S
C1733      C1734   1.390       .  A
C1733      C1770   1.489       .  S
C1734      H1736   1.081       .  S
N1737      N1738   1.323       .  A
N1737      C1741   1.345       .  A
N1738      C1739   1.345       .  A
C1739      C1740   1.381       .  A
C1739      H1742   1.082       .  S
C1740      C1741   1.380       .  A
C1741      H1743   1.082       .  S
N1744      N1745   1.323       .  A
N1744      C1748   1.345       .  A
N1744     Cu1752   2.071       .  S
N1745      C1746   1.345       .  A
N1745     Cu1751   2.073       .  S
C1746      C1747   1.380       .  A
C1746      H1749   1.082       .  S
C1747      C1748   1.380       .  A
C1748      H1750   1.082       .  S
Cu1751     N1754   2.073       .  S
Cu1752     N1762   2.071       .  S
Cu1753     N1755   2.071       .  S
Cu1753     N1761   2.071       .  S
N1754      N1755   1.323       .  A
N1754      C1758   1.345       .  A
N1755      C1756   1.345       .  A
C1756      C1757   1.380       .  A
C1756      H1759   1.082       .  S
C1757      C1758   1.380       .  A
C1758      H1760   1.082       .  S
N1761      N1762   1.320       .  A
N1761      C1765   1.344       .  A
N1762      C1763   1.343       .  A
C1763      C1764   1.389       .  A
C1763      H1766   1.081       .  S
C1764      C1765   1.389       .  A
C1764      C1768   1.489       .  S
C1765      H1767   1.081       .  S
C1768      C1769   1.406       .  A
C1768      C1773   1.406       .  A
C1769      C1770   1.405       .  A
C1769      H1774   1.078       .  S
C1770      C1771   1.406       .  A
C1771      C1772   1.406       .  A
C1771      H1775   1.078       .  S
C1772      C1773   1.406       .  A
C1772      C1780   1.490       .  S
C1773      H1776   1.078       .  S
N1777      N1778   1.320       .  A
N1777      C1781   1.344       .  A
N1777     Cu1785   2.072       .  S
N1778      C1779   1.344       .  A
N1778     Cu1784   2.072       .  S
C1779      C1780   1.390       .  A
C1779      H1782   1.081       .  S
C1780      C1781   1.389       .  A
C1781      H1783   1.081       .  S
Cu1784     N1787   2.072       .  S
Cu1785     N1795   2.072       .  S
Cu1786     N1788   2.073       .  S
Cu1786     N1794   2.073       .  S
N1787      N1788   1.323       .  A
N1787      C1791   1.345       .  A
N1788      C1789   1.345       .  A
C1789      C1790   1.380       .  A
C1789      H1792   1.082       .  S
C1790      C1791   1.380       .  A
C1791      H1793   1.082       .  S
N1794      N1795   1.323       .  A
N1794      C1798   1.345       .  A
N1795      C1796   1.345       .  A
C1796      C1797   1.380       .  A
C1796      H1799   1.082       .  S
C1797      C1798   1.380       .  A
C1798      H1800   1.082       .  S
C1801      C1802   1.402   1_565  A
C1801      C1806   1.403       .  A
C1801      C3741   1.471       .  S
C1802      C1803   1.400       .  A
C1802      H1807   1.084       .  S
C1803      C1804   1.400   1_545  A
C1804      C1805   1.400       .  A
C1804      H1808   1.084       .  S
C1805      C1806   1.401       .  A
C1806      H1809   1.084       .  S
C1810      C1811   1.402       .  A
C1810      C1815   1.402   1_565  A
C1810      C3738   1.471       .  S
C1811      C1812   1.400       .  A
C1811      H1816   1.084       .  S
C1812      C1813   1.399       .  A
C1812      C1907   1.463       .  S
C1813      C1814   1.400   1_565  A
C1813      H1817   1.084       .  S
C1814      C1815   1.401       .  A
C1814      C2189   1.464       .  S
C1815      H1818   1.084       .  S
C1819      C1820   1.410       .  A
C1819      C1824   1.410   1_554  A
C1819      C3731   1.495       .  S
C1820      C1821   1.401       .  A
C1820      H1825   1.083       .  S
C1821      C1822   1.398       .  A
C1822      C1823   1.398   1_554  A
C1822      H1826   1.084       .  S
C1823      C1824   1.402       .  A
C1823      C1998   1.466       .  S
C1824      H1827   1.083       .  S
C1828      C1829   1.410       .  A
C1828      C1833   1.410   1_554  A
C1828      C3728   1.495       .  S
C1829      C1830   1.401       .  A
C1829      H1834   1.083       .  S
C1830      C1831   1.397       .  A
C1831      C1832   1.397   1_554  A
C1831      H1835   1.084       .  S
C1832      C1833   1.401       .  A
C1832      C1914   1.464       .  S
C1833      H1836   1.083       .  S
N1837      N1838   1.323       .  A
N1837      C1841   1.345       .  A
N1837     Cu1845   2.074       .  S
N1838      C1839   1.345       .  A
N1838     Cu1844   2.070       .  S
C1839      C1840   1.380       .  A
C1839      H1842   1.082       .  S
C1840      C1841   1.381       .  A
C1840      C1922   1.465       .  S
C1841      H1843   1.082       .  S
Cu1844     N1847   2.070       .  S
Cu1845     N1855   2.074       .  S
Cu1846     N1848   2.071       .  S
Cu1846     N1854   2.071       .  S
N1847      N1848   1.320       .  A
N1847      C1851   1.344       .  A
N1848      C1849   1.343       .  A
C1849      C1850   1.390       .  A
C1849      H1852   1.081       .  S
C1850      C1851   1.389       .  A
C1850      C1887   1.489       .  S
C1851      H1853   1.081       .  S
N1854      N1855   1.323       .  A
N1854      C1858   1.346       .  A
N1855      C1856   1.345       .  A
C1856      C1857   1.380       .  A
C1856      H1859   1.082       .  S
C1857      C1858   1.380       .  A
C1857      C3180   1.466       .  S
C1858      H1860   1.082       .  S
N1861      N1862   1.323       .  A
N1861      C1865   1.346       .  A
N1861     Cu1869   2.077       .  S
N1862      C1863   1.345       .  A
N1862     Cu1868   2.069       .  S
C1863      C1864   1.379       .  A
C1863      H1866   1.082       .  S
C1864      C1865   1.381       .  A
C1865      H1867   1.082       .  S
Cu1868     N1871   2.069       .  S
Cu1869     N1879   2.077       .  S
Cu1870     N1872   2.068       .  S
Cu1870     N1878   2.068       .  S
N1871      N1872   1.320       .  A
N1871      C1875   1.344       .  A
N1872      C1873   1.342       .  A
C1873      C1874   1.389       .  A
C1873      H1876   1.081       .  S
C1874      C1875   1.389       .  A
C1874      C1889   1.488       .  S
C1875      H1877   1.081       .  S
N1878      N1879   1.323       .  A
N1878      C1882   1.346       .  A
N1879      C1880   1.345       .  A
C1880      C1881   1.381       .  A
C1880      H1883   1.082       .  S
C1881      C1882   1.380       .  A
C1881      C3198   1.466       .  S
C1882      H1884   1.082       .  S
C1885      C1886   1.406       .  A
C1885      C1890   1.406       .  A
C1885      C1897   1.489       .  S
C1886      C1887   1.406       .  A
C1886      H1891   1.078       .  S
C1887      C1888   1.405       .  A
C1888      C1889   1.404       .  A
C1888      H1892   1.077       .  S
C1889      C1890   1.404       .  A
C1890      H1893   1.078       .  S
N1894      N1895   1.320       .  A
N1894      C1898   1.344       .  A
N1894     Cu1902   2.072       .  S
N1895      C1896   1.343       .  A
N1895     Cu1901   2.071       .  S
C1896      C1897   1.389       .  A
C1896      H1899   1.081       .  S
C1897      C1898   1.389       .  A
C1898      H1900   1.081       .  S
Cu1901     N1904   2.071       .  S
Cu1902     N1912   2.072       .  S
Cu1903     N1905   2.067       .  S
Cu1903     N1911   2.067       .  S
N1904      N1905   1.323       .  A
N1904      C1908   1.345       .  A
N1905      C1906   1.344       .  A
C1906      C1907   1.379       .  A
C1906      H1909   1.082       .  S
C1907      C1908   1.380       .  A
C1908      H1910   1.082       .  S
N1911      N1912   1.323       .  A
N1911      C1915   1.345       .  A
N1912      C1913   1.344       .  A
C1913      C1914   1.380       .  A
C1913      H1916   1.082       .  S
C1914      C1915   1.379       .  A
C1915      H1917   1.082       .  S
C1918      C1919   1.403       .  A
C1918      C1923   1.403   1_554  A
C1918      C3718   1.473       .  S
C1919      C1920   1.401       .  A
C1919      H1924   1.084       .  S
C1920      C1921   1.400       .  A
C1921      C1922   1.400   1_554  A
C1921      H1925   1.084       .  S
C1922      C1923   1.402       .  A
C1923      H1926   1.084       .  S
C1927      C1928   1.403       .  A
C1927      C1932   1.403   1_554  A
C1927      C3721   1.473       .  S
C1928      C1929   1.402       .  A
C1928      H1933   1.084       .  S
C1929      C1930   1.400       .  A
C1930      C1931   1.400   1_554  A
C1930      H1934   1.084       .  S
C1931      C1932   1.402       .  A
C1931      C2014   1.466       .  S
C1932      H1935   1.084       .  S
C1936      C1937   1.403       .  A
C1936      C1941   1.403       .  A
C1936      C3708   1.473       .  S
C1937      C1938   1.402       .  A
C1937      H1942   1.084       .  S
C1938      C1939   1.400       .  A
C1939      C1940   1.400       .  A
C1939      H1943   1.084       .  S
C1940      C1941   1.402       .  A
C1941      H1944   1.084       .  S
C1945      C1946   1.403       .  A
C1945      C1950   1.403       .  A
C1945      C3711   1.473       .  S
C1946      C1947   1.402       .  A
C1946      H1951   1.084       .  S
C1947      C1948   1.400       .  A
C1947      C2031   1.466       .  S
C1948      C1949   1.400       .  A
C1948      H1952   1.084       .  S
C1949      C1950   1.402       .  A
C1949      C2130   1.466       .  S
C1950      H1953   1.084       .  S
N1954      N1955   1.320       .  A
N1954      C1958   1.344       .  A
N1954     Cu1962   2.072       .  S
N1955      C1956   1.345       .  A
N1955     Cu1961   2.077       .  S
C1956      C1957   1.391       .  A
C1956      H1959   1.081       .  S
C1957      C1958   1.389       .  A
C1957      C2002   1.491       .  S
C1958      H1960   1.081       .  S
Cu1961     N1964   2.077       .  S
Cu1962     N1972   2.072       .  S
Cu1963     N1965   2.070       .  S
Cu1963     N1971   2.070       .  S
N1964      N1965   1.323       .  A
N1964      C1968   1.345       .  A
N1965      C1966   1.346       .  A
C1966      C1967   1.380       .  A
C1966      H1969   1.082       .  S
C1967      C1968   1.381       .  A
C1967      C2937   1.466       .  S
C1968      H1970   1.082       .  S
N1971      N1972   1.323       .  A
N1971      C1975   1.345       .  A
N1972      C1973   1.345       .  A
C1973      C1974   1.380       .  A
C1973      H1976   1.082       .  S
C1974      C1975   1.380       .  A
C1975      H1977   1.082       .  S
N1978      N1979   1.320       .  A
N1978      C1982   1.345       .  A
N1978     Cu1986   2.077       .  S
N1979      C1980   1.343       .  A
N1979     Cu1985   2.068       .  S
C1980      C1981   1.388       .  A
C1980      H1983   1.081       .  S
C1981      C1982   1.391       .  A
C1981      C2004   1.490       .  S
C1982      H1984   1.081       .  S
Cu1985     N1988   2.068       .  S
Cu1986     N1996   2.077       .  S
Cu1987     N1989   2.071       .  S
Cu1987     N1995   2.071       .  S
N1988      N1989   1.323       .  A
N1988      C1992   1.345       .  A
N1989      C1990   1.344       .  A
C1990      C1991   1.380       .  A
C1990      H1993   1.082       .  S
C1991      C1992   1.380       .  A
C1991      C3371   1.464       .  S
C1992      H1994   1.082       .  S
N1995      N1996   1.323       .  A
N1995      C1999   1.346       .  A
N1996      C1997   1.345       .  A
C1997      C1998   1.381       .  A
C1997      H2000   1.082       .  S
C1998      C1999   1.380       .  A
C1999      H2001   1.082       .  S
C2002      C2003   1.405       .  A
C2002      C2007   1.406       .  A
C2003      C2004   1.406       .  A
C2003      H2008   1.078       .  S
C2004      C2005   1.405       .  A
C2005      C2006   1.406       .  A
C2005      H2009   1.078       .  S
C2006      C2007   1.406       .  A
C2006      C2024   1.490       .  S
C2007      H2010   1.078       .  S
N2011      N2012   1.323       .  A
N2011      C2015   1.345       .  A
N2011     Cu2019   2.075       .  S
N2012      C2013   1.345       .  A
N2012     Cu2018   2.073       .  S
C2013      C2014   1.380       .  A
C2013      H2016   1.082       .  S
C2014      C2015   1.381       .  A
C2015      H2017   1.082       .  S
Cu2018     N2021   2.073       .  S
Cu2019     N2029   2.075       .  S
Cu2020     N2022   2.073       .  S
Cu2020     N2028   2.073       .  S
N2021      N2022   1.320       .  A
N2021      C2025   1.344       .  A
N2022      C2023   1.344       .  A
C2023      C2024   1.390       .  A
C2023      H2026   1.081       .  S
C2024      C2025   1.390       .  A
C2025      H2027   1.081       .  S
N2028      N2029   1.323       .  A
N2028      C2032   1.345       .  A
N2029      C2030   1.345       .  A
C2030      C2031   1.381       .  A
C2030      H2033   1.082       .  S
C2031      C2032   1.380       .  A
C2032      H2034   1.082       .  S
C2035      C2036   1.403       .  A
C2035      C2040   1.403   1_554  A
C2035      C3698   1.472       .  S
C2036      C2037   1.402       .  A
C2036      H2041   1.084       .  S
C2037      C2038   1.400       .  A
C2038      C2039   1.400   1_554  A
C2038      H2042   1.084       .  S
C2039      C2040   1.401       .  A
C2039      C2080   1.465       .  S
C2040      H2043   1.084       .  S
C2044      C2045   1.403       .  A
C2044      C2049   1.403   1_554  A
C2044      C3701   1.473       .  S
C2045      C2046   1.401       .  A
C2045      H2050   1.084       .  S
C2046      C2047   1.400       .  A
C2047      C2048   1.400   1_554  A
C2047      H2051   1.084       .  S
C2048      C2049   1.401       .  A
C2048      C2196   1.465       .  S
C2049      H2052   1.084       .  S
N2053      N2054   1.323       .  A
N2053      C2057   1.345       .  A
N2053     Cu2061   2.082       .  S
N2054      C2055   1.345       .  A
N2054     Cu2060   2.064       .  S
C2055      C2056   1.378       .  A
C2055      H2058   1.082       .  S
C2056      C2057   1.383       .  A
C2056      C2487   1.468       .  S
C2057      H2059   1.082       .  S
Cu2060     N2063   2.064       .  S
Cu2061     N2071   2.081       .  S
Cu2062     N2064   2.073       .  S
Cu2062     N2070   2.073       .  S
N2063      N2064   1.320       .  A
N2063      C2067   1.343       .  A
N2064      C2065   1.344       .  A
C2065      C2066   1.391       .  A
C2065      H2068   1.081       .  S
C2066      C2067   1.388       .  A
C2066      C2103   1.489       .  S
C2067      H2069   1.081       .  S
N2070      N2071   1.324       .  A
N2070      C2074   1.345       .  A
N2071      C2072   1.346       .  A
C2072      C2073   1.381       .  A
C2072      H2075   1.082       .  S
C2073      C2074   1.380       .  A
C2074      H2076   1.082       .  S
N2077      N2078   1.323       .  A
N2077      C2081   1.344       .  A
N2077     Cu2085   2.070       .  S
N2078      C2079   1.345       .  A
N2078     Cu2084   2.072       .  S
C2079      C2080   1.380       .  A
C2079      H2082   1.082       .  S
C2080      C2081   1.380       .  A
C2081      H2083   1.082       .  S
Cu2084     N2087   2.072       .  S
Cu2085     N2095   2.070       .  S
Cu2086     N2088   2.076       .  S
Cu2086     N2094   2.076       .  S
N2087      N2088   1.320       .  A
N2087      C2091   1.344       .  A
N2088      C2089   1.345       .  A
C2089      C2090   1.391       .  A
C2089      H2092   1.081       .  S
C2090      C2091   1.389       .  A
C2090      C2101   1.491       .  S
C2091      H2093   1.081       .  S
N2094      N2095   1.323       .  A
N2094      C2098   1.345       .  A
N2095      C2096   1.346       .  A
C2096      C2097   1.380       .  A
C2096      H2099   1.082       .  S
C2097      C2098   1.381       .  A
C2097      C2379   1.466       .  S
C2098      H2100   1.082       .  S
C2101      C2102   1.406       .  A
C2101      C2106   1.407       .  A
C2102      C2103   1.406       .  A
C2102      H2107   1.078       .  S
C2103      C2104   1.404       .  A
C2104      C2105   1.404       .  A
C2104      H2108   1.078       .  S
C2105      C2106   1.406       .  A
C2105      C2123   1.489       .  S
C2106      H2109   1.078       .  S
N2110      N2111   1.323       .  A
N2110      C2114   1.345       .  A
N2110     Cu2118   2.074       .  S
N2111      C2112   1.345       .  A
N2111     Cu2117   2.070       .  S
C2112      C2113   1.380       .  A
C2112      H2115   1.082       .  S
C2113      C2114   1.380       .  A
C2113      C2147   1.465       .  S
C2114      H2116   1.082       .  S
Cu2117     N2120   2.069       .  S
Cu2118     N2128   2.074       .  S
Cu2119     N2121   2.073       .  S
Cu2119     N2127   2.073       .  S
N2120      N2121   1.320       .  A
N2120      C2124   1.344       .  A
N2121      C2122   1.343       .  A
C2122      C2123   1.390       .  A
C2122      H2125   1.081       .  S
C2123      C2124   1.389       .  A
C2124      H2126   1.081       .  S
N2127      N2128   1.323       .  A
N2127      C2131   1.345       .  A
N2128      C2129   1.345       .  A
C2129      C2130   1.380       .  A
C2129      H2132   1.082       .  S
C2130      C2131   1.381       .  A
C2131      H2133   1.082       .  S
C2134      C2135   1.403       .  A
C2134      C2139   1.403   1_554  A
C2134      C3688   1.472       .  S
C2135      C2136   1.401       .  A
C2135      H2140   1.084       .  S
C2136      C2137   1.400       .  A
C2137      C2138   1.400   1_554  A
C2137      H2141   1.084       .  S
C2138      C2139   1.401       .  A
C2138      C2212   1.465       .  S
C2139      H2142   1.084       .  S
C2143      C2144   1.403       .  A
C2143      C2148   1.403   1_554  A
C2143      C3691   1.472       .  S
C2144      C2145   1.401       .  A
C2144      H2149   1.084       .  S
C2145      C2146   1.400       .  A
C2146      C2147   1.400   1_554  A
C2146      H2150   1.084       .  S
C2147      C2148   1.401       .  A
C2148      H2151   1.084       .  S
N2152      N2153   1.320       .  A
N2152      C2156   1.344       .  A
N2152     Cu2160   2.074       .  S
N2153      C2154   1.344       .  A
N2153     Cu2159   2.074       .  S
C2154      C2155   1.390       .  A
C2154      H2157   1.081       .  S
C2155      C2156   1.390       .  A
C2155      C2204   1.490       .  S
C2156      H2158   1.081       .  S
Cu2159     N2162   2.074       .  S
Cu2160     N2170   2.074       .  S
Cu2161     N2163   2.067       .  S
Cu2161     N2169   2.067       .  S
N2162      N2163   1.323       .  A
N2162      C2166   1.345       .  A
N2163      C2164   1.344       .  A
C2164      C2165   1.379       .  A
C2164      H2167   1.082       .  S
C2165      C2166   1.381       .  A
C2166      H2168   1.082       .  S
N2169      N2170   1.323       .  A
N2169      C2173   1.345       .  A
N2170      C2171   1.344       .  A
C2171      C2172   1.380       .  A
C2171      H2174   1.082       .  S
C2172      C2173   1.379       .  A
C2173      H2175   1.082       .  S
N2176      N2177   1.320       .  A
N2176      C2180   1.344       .  A
N2176     Cu2184   2.073       .  S
N2177      C2178   1.343       .  A
N2177     Cu2183   2.068       .  S
C2178      C2179   1.389       .  A
C2178      H2181   1.081       .  S
C2179      C2180   1.390       .  A
C2179      C2200   1.489       .  S
C2180      H2182   1.081       .  S
Cu2183     N2186   2.068       .  S
Cu2184     N2194   2.073       .  S
Cu2185     N2187   2.072       .  S
Cu2185     N2193   2.072       .  S
N2186      N2187   1.323       .  A
N2186      C2190   1.344       .  A
N2187      C2188   1.345       .  A
C2188      C2189   1.380       .  A
C2188      H2191   1.082       .  S
C2189      C2190   1.379       .  A
C2190      H2192   1.082       .  S
N2193      N2194   1.323       .  A
N2193      C2197   1.345       .  A
N2194      C2195   1.345       .  A
C2195      C2196   1.380       .  A
C2195      H2198   1.082       .  S
C2196      C2197   1.380       .  A
C2197      H2199   1.082       .  S
C2200      C2201   1.405       .  A
C2200      C2205   1.406       .  A
C2201      C2202   1.405       .  A
C2201      H2206   1.078       .  S
C2202      C2203   1.406       .  A
C2202      C2222   1.489       .  S
C2203      C2204   1.406       .  A
C2203      H2207   1.078       .  S
C2204      C2205   1.406       .  A
C2205      H2208   1.078       .  S
N2209      N2210   1.323       .  A
N2209      C2213   1.345       .  A
N2209     Cu2217   2.073       .  S
N2210      C2211   1.345       .  A
N2210     Cu2216   2.072       .  S
C2211      C2212   1.380       .  A
C2211      H2214   1.082       .  S
C2212      C2213   1.380       .  A
C2213      H2215   1.082       .  S
Cu2216     N2219   2.072       .  S
Cu2217     N2227   2.073       .  S
Cu2218     N2220   2.070       .  S
Cu2218     N2226   2.070       .  S
N2219      N2220   1.320       .  A
N2219      C2223   1.343       .  A
N2220      C2221   1.344       .  A
C2221      C2222   1.389       .  A
C2221      H2224   1.081       .  S
C2222      C2223   1.390       .  A
C2223      H2225   1.081       .  S
N2226      N2227   1.323       .  A
N2226      C2230   1.345       .  A
N2227      C2228   1.345       .  A
C2228      C2229   1.380       .  A
C2228      H2231   1.082       .  S
C2229      C2230   1.380       .  A
C2229      C2264   1.465       .  S
C2230      H2232   1.082       .  S
C2233      C2234   1.403   1_554  A
C2233      C2238   1.403       .  A
C2233      C3678   1.473       .  S
C2234      C2235   1.401       .  A
C2234      H2239   1.084       .  S
C2235      C2236   1.400   1_556  A
C2235      C2406   1.466       .  S
C2236      C2237   1.400       .  A
C2236      H2240   1.084       .  S
C2237      C2238   1.402       .  A
C2237      C2757   1.466       .  S
C2238      H2241   1.084       .  S
C2242      C2243   1.403       .  A
C2242      C2247   1.403   1_554  A
C2242      C3681   1.473       .  S
C2243      C2244   1.402       .  A
C2243      H2248   1.084       .  S
C2244      C2245   1.400       .  A
C2245      C2246   1.400   1_554  A
C2245      H2249   1.084       .  S
C2246      C2247   1.401       .  A
C2246      C2329   1.465       .  S
C2247      H2250   1.084       .  S
C2251      C2252   1.406       .  A
C2251      C2256   1.406       .  A
C2251      C3668   1.483       .  S
C2252      C2253   1.401       .  A
C2252      H2257   1.084       .  S
C2253      C2254   1.399       .  A
C2254      C2255   1.399       .  A
C2254      H2258   1.084       .  S
C2255      C2256   1.401       .  A
C2256      H2259   1.084       .  S
C2260      C2261   1.407       .  A
C2260      C2265   1.406       .  A
C2260      C3671   1.483       .  S
C2261      C2262   1.402       .  A
C2261      H2266   1.084       .  S
C2262      C2263   1.399       .  A
C2262      C2346   1.466       .  S
C2263      C2264   1.399       .  A
C2263      H2267   1.084       .  S
C2264      C2265   1.401       .  A
C2265      H2268   1.084       .  S
N2269      N2270   1.323       .  A
N2269      C2273   1.345       .  A
N2269     Cu2277   2.075       .  S
N2270      C2271   1.344       .  A
N2270     Cu2276   2.069       .  S
C2271      C2272   1.379       .  A
C2271      H2274   1.082       .  S
C2272      C2273   1.381       .  A
C2272      C2919   1.465       .  S
C2273      H2275   1.082       .  S
Cu2276     N2279   2.070       .  S
Cu2277     N2287   2.075       .  S
Cu2278     N2280   2.068       .  S
Cu2278     N2286   2.068       .  S
N2279      N2280   1.320       .  A
N2279      C2283   1.343       .  A
N2280      C2281   1.343       .  A
C2281      C2282   1.389       .  A
C2281      H2284   1.081       .  S
C2282      C2283   1.389       .  A
C2282      C2321   1.488       .  S
C2283      H2285   1.081       .  S
N2286      N2287   1.323       .  A
N2286      C2290   1.345       .  A
N2287      C2288   1.345       .  A
C2288      C2289   1.380       .  A
C2288      H2291   1.082       .  S
C2289      C2290   1.380       .  A
C2290      H2292   1.082       .  S
N2293      N2294   1.323       .  A
N2293      C2297   1.345       .  A
N2293     Cu2301   2.069       .  S
N2294      C2295   1.345       .  A
N2294     Cu2300   2.069       .  S
C2295      C2296   1.380       .  A
C2295      H2298   1.082       .  S
C2296      C2297   1.380       .  A
C2296      C2354   1.464       .  S
C2297      H2299   1.082       .  S
Cu2300     N2303   2.069       .  S
Cu2301     N2311   2.069       .  S
Cu2302     N2304   2.074       .  S
Cu2302     N2310   2.074       .  S
N2303      N2304   1.323       .  A
N2303      C2307   1.345       .  A
N2304      C2305   1.345       .  A
C2305      C2306   1.380       .  A
C2305      H2308   1.082       .  S
C2306      C2307   1.379       .  A
C2306      C3207   1.465       .  S
C2307      H2309   1.082       .  S
N2310      N2311   1.320       .  A
N2310      C2314   1.344       .  A
N2311      C2312   1.344       .  A
C2312      C2313   1.389       .  A
C2312      H2315   1.081       .  S
C2313      C2314   1.390       .  A
C2313      C2317   1.489       .  S
C2314      H2316   1.081       .  S
C2317      C2318   1.407       .  A
C2317      C2322   1.405       .  A
C2318      C2319   1.406       .  A
C2318      H2323   1.078       .  S
C2319      C2320   1.405       .  A
C2319      C2339   1.490       .  S
C2320      C2321   1.405       .  A
C2320      H2324   1.078       .  S
C2321      C2322   1.405       .  A
C2322      H2325   1.078       .  S
N2326      N2327   1.323       .  A
N2326      C2330   1.345       .  A
N2326     Cu2334   2.072       .  S
N2327      C2328   1.345       .  A
N2327     Cu2333   2.072       .  S
C2328      C2329   1.380       .  A
C2328      H2331   1.082       .  S
C2329      C2330   1.380       .  A
C2330      H2332   1.082       .  S
Cu2333     N2336   2.071       .  S
Cu2334     N2344   2.072       .  S
Cu2335     N2337   2.073       .  S
Cu2335     N2343   2.073       .  S
N2336      N2337   1.320       .  A
N2336      C2340   1.344       .  A
N2337      C2338   1.344       .  A
C2338      C2339   1.390       .  A
C2338      H2341   1.081       .  S
C2339      C2340   1.389       .  A
C2340      H2342   1.081       .  S
N2343      N2344   1.323       .  A
N2343      C2347   1.345       .  A
N2344      C2345   1.345       .  A
C2345      C2346   1.380       .  A
C2345      H2348   1.082       .  S
C2346      C2347   1.380       .  A
C2347      H2349   1.082       .  S
C2350      C2351   1.406       .  A
C2350      C2355   1.406   1_554  A
C2350      C3661   1.482       .  S
C2351      C2352   1.401       .  A
C2351      H2356   1.084       .  S
C2352      C2353   1.399       .  A
C2353      C2354   1.399   1_554  A
C2353      H2357   1.084       .  S
C2354      C2355   1.401       .  A
C2355      H2358   1.084       .  S
C2359      C2360   1.406   1_554  A
C2359      C2364   1.406       .  A
C2359      C3658   1.483       .  S
C2360      C2361   1.401       .  A
C2360      H2365   1.084       .  S
C2361      C2362   1.399   1_556  A
C2361      C2463   1.466       .  S
C2362      C2363   1.399       .  A
C2362      H2366   1.084       .  S
C2363      C2364   1.401       .  A
C2363      C2814   1.465       .  S
C2364      H2367   1.084       .  S
C2368      C2369   1.409       .  A
C2368      C2373   1.409   1_455  A
C2368      C3651   1.492       .  S
C2369      C2370   1.401       .  A
C2369      H2374   1.083       .  S
C2370      C2371   1.397       .  A
C2371      C2372   1.398   1_455  A
C2371      H2375   1.084       .  S
C2372      C2373   1.401       .  A
C2372      C2548   1.465       .  S
C2373      H2376   1.083       .  S
C2377      C2378   1.409       .  A
C2377      C2382   1.409   1_455  A
C2377      C3648   1.493       .  S
C2378      C2379   1.401       .  A
C2378      H2383   1.083       .  S
C2379      C2380   1.398       .  A
C2380      C2381   1.398   1_455  A
C2380      H2384   1.084       .  S
C2381      C2382   1.401       .  A
C2381      C2446   1.466       .  S
C2382      H2385   1.083       .  S
N2386      N2387   1.323       .  A
N2386      C2390   1.345       .  A
N2386     Cu2394   2.073       .  S
N2387      C2388   1.345       .  A
N2387     Cu2393   2.069       .  S
C2388      C2389   1.379       .  A
C2388      H2391   1.082       .  S
C2389      C2390   1.380       .  A
C2389      C3315   1.465       .  S
C2390      H2392   1.082       .  S
Cu2393     N2396   2.070       .  S
Cu2394     N2404   2.073       .  S
Cu2395     N2397   2.073       .  S
Cu2395     N2403   2.073       .  S
N2396      N2397   1.320       .  A
N2396      C2400   1.343       .  A
N2397      C2398   1.344       .  A
C2398      C2399   1.390       .  A
C2398      H2401   1.081       .  S
C2399      C2400   1.389       .  A
C2399      C2438   1.490       .  S
C2400      H2402   1.081       .  S
N2403      N2404   1.323       .  A
N2403      C2407   1.345       .  A
N2404      C2405   1.345       .  A
C2405      C2406   1.380       .  A
C2405      H2408   1.082       .  S
C2406      C2407   1.380       .  A
C2407      H2409   1.082       .  S
N2410      N2411   1.321       .  A
N2410      C2414   1.345       .  A
N2410     Cu2418   2.081       .  S
N2411      C2412   1.344       .  A
N2411     Cu2417   2.074       .  S
C2412      C2413   1.389       .  A
C2412      H2415   1.081       .  S
C2413      C2414   1.391       .  A
C2413      C2434   1.491       .  S
C2414      H2416   1.081       .  S
Cu2417     N2420   2.075       .  S
Cu2418     N2428   2.082       .  S
Cu2419     N2421   2.064       .  S
Cu2419     N2427   2.064       .  S
N2420      N2421   1.322       .  A
N2420      C2424   1.345       .  A
N2421      C2422   1.344       .  A
C2422      C2423   1.378       .  A
C2422      H2425   1.082       .  S
C2423      C2424   1.381       .  A
C2423      C3333   1.464       .  S
C2424      H2426   1.082       .  S
N2427      N2428   1.323       .  A
N2427      C2431   1.345       .  A
N2428      C2429   1.345       .  A
C2429      C2430   1.383       .  A
C2429      H2432   1.082       .  S
C2430      C2431   1.378       .  A
C2430      C2489   1.467       .  S
C2431      H2433   1.082       .  S
C2434      C2435   1.406       .  A
C2434      C2439   1.406       .  A
C2435      C2436   1.406       .  A
C2435      H2440   1.078       .  S
C2436      C2437   1.405       .  A
C2436      C2456   1.490       .  S
C2437      C2438   1.405       .  A
C2437      H2441   1.078       .  S
C2438      C2439   1.407       .  A
C2439      H2442   1.078       .  S
N2443      N2444   1.323       .  A
N2443      C2447   1.344       .  A
N2443     Cu2451   2.074       .  S
N2444      C2445   1.346       .  A
N2444     Cu2450   2.070       .  S
C2445      C2446   1.380       .  A
C2445      H2448   1.082       .  S
C2446      C2447   1.380       .  A
C2447      H2449   1.082       .  S
Cu2450     N2453   2.070       .  S
Cu2451     N2461   2.074       .  S
Cu2452     N2454   2.073       .  S
Cu2452     N2460   2.073       .  S
N2453      N2454   1.320       .  A
N2453      C2457   1.343       .  A
N2454      C2455   1.344       .  A
C2455      C2456   1.390       .  A
C2455      H2458   1.081       .  S
C2456      C2457   1.389       .  A
C2457      H2459   1.081       .  S
N2460      N2461   1.323       .  A
N2460      C2464   1.345       .  A
N2461      C2462   1.345       .  A
C2462      C2463   1.380       .  A
C2462      H2465   1.082       .  S
C2463      C2464   1.380       .  A
C2464      H2466   1.082       .  S
C2467      C2468   1.403       .  A
C2467      C2472   1.403       .  A
C2467      C3638   1.473       .  S
C2468      C2469   1.402       .  A
C2468      H2473   1.084       .  S
C2469      C2470   1.400       .  A
C2470      C2471   1.400       .  A
C2470      H2474   1.084       .  S
C2471      C2472   1.402       .  A
C2472      H2475   1.084       .  S
C2476      C2477   1.403       .  A
C2476      C2481   1.403       .  A
C2476      C3641   1.473       .  S
C2477      C2478   1.402       .  A
C2477      H2482   1.084       .  S
C2478      C2479   1.400       .  A
C2478      C2541   1.465       .  S
C2479      C2480   1.400       .  A
C2479      H2483   1.084       .  S
C2480      C2481   1.402       .  A
C2480      C2856   1.466       .  S
C2481      H2484   1.084       .  S
C2485      C2486   1.417       .  A
C2485      C2490   1.417   1_455  A
C2485      C3631   1.516       .  S
C2486      C2487   1.403       .  A
C2486      H2491   1.080       .  S
C2487      C2488   1.394       .  A
C2488      C2489   1.394   1_455  A
C2488      H2492   1.085       .  S
C2489      C2490   1.403       .  A
C2490      H2493   1.078       .  S
C2494      C2495   1.416       .  A
C2494      C2499   1.416   1_455  A
C2494      C3628   1.514       .  S
C2495      C2496   1.403       .  A
C2495      H2500   1.080       .  S
C2496      C2497   1.395       .  A
C2497      C2498   1.394   1_455  A
C2497      H2501   1.085       .  S
C2498      C2499   1.402       .  A
C2498      C2581   1.467       .  S
C2499      H2502   1.080       .  S
C2503      C2504   1.402       .  A
C2503      C2508   1.402       .  A
C2503      C3618   1.471       .  S
C2504      C2505   1.401       .  A
C2504      H2509   1.084       .  S
C2505      C2506   1.400       .  A
C2506      C2507   1.400       .  A
C2506      H2510   1.084       .  S
C2507      C2508   1.401       .  A
C2508      H2511   1.084       .  S
C2512      C2513   1.402       .  A
C2512      C2517   1.402       .  A
C2512      C3621   1.470       .  S
C2513      C2514   1.400       .  A
C2513      H2518   1.084       .  S
C2514      C2515   1.399       .  A
C2514      C2598   1.462       .  S
C2515      C2516   1.399       .  A
C2515      H2519   1.084       .  S
C2516      C2517   1.400       .  A
C2516      C2913   1.462       .  S
C2517      H2520   1.084       .  S
N2521      N2522   1.323       .  A
N2521      C2525   1.345       .  A
N2521     Cu2529   2.073       .  S
N2522      C2523   1.345       .  A
N2522     Cu2528   2.069       .  S
C2523      C2524   1.379       .  A
C2523      H2526   1.082       .  S
C2524      C2525   1.380       .  A
C2524      C2928   1.464       .  S
C2525      H2527   1.082       .  S
Cu2528     N2531   2.069       .  S
Cu2529     N2539   2.073       .  S
Cu2530     N2532   2.072       .  S
Cu2530     N2538   2.072       .  S
N2531      N2532   1.320       .  A
N2531      C2535   1.343       .  A
N2532      C2533   1.344       .  A
C2533      C2534   1.390       .  A
C2533      H2536   1.081       .  S
C2534      C2535   1.389       .  A
C2534      C2571   1.489       .  S
C2535      H2537   1.081       .  S
N2538      N2539   1.323       .  A
N2538      C2542   1.345       .  A
N2539      C2540   1.345       .  A
C2540      C2541   1.380       .  A
C2540      H2543   1.082       .  S
C2541      C2542   1.380       .  A
C2542      H2544   1.082       .  S
N2545      N2546   1.323       .  A
N2545      C2549   1.345       .  A
N2545     Cu2553   2.069       .  S
N2546      C2547   1.344       .  A
N2546     Cu2552   2.072       .  S
C2547      C2548   1.380       .  A
C2547      H2550   1.082       .  S
C2548      C2549   1.380       .  A
C2549      H2551   1.082       .  S
Cu2552     N2555   2.072       .  S
Cu2553     N2563   2.069       .  S
Cu2554     N2556   2.072       .  S
Cu2554     N2562   2.073       .  S
N2555      N2556   1.323       .  A
N2555      C2559   1.345       .  A
N2556      C2557   1.345       .  A
C2557      C2558   1.380       .  A
C2557      H2560   1.082       .  S
C2558      C2559   1.380       .  A
C2558      C3216   1.465       .  S
C2559      H2561   1.082       .  S
N2562      N2563   1.320       .  A
N2562      C2566   1.344       .  A
N2563      C2564   1.343       .  A
C2564      C2565   1.389       .  A
C2564      H2567   1.081       .  S
C2565      C2566   1.390       .  A
C2565      C2569   1.489       .  S
C2566      H2568   1.081       .  S
C2569      C2570   1.405       .  A
C2569      C2574   1.406       .  A
C2570      C2571   1.405       .  A
C2570      H2575   1.078       .  S
C2571      C2572   1.406       .  A
C2572      C2573   1.406       .  A
C2572      H2576   1.078       .  S
C2573      C2574   1.405       .  A
C2573      C2591   1.490       .  S
C2574      H2577   1.078       .  S
N2578      N2579   1.323       .  A
N2578      C2582   1.346       .  A
N2578     Cu2586   2.065       .  S
N2579      C2580   1.345       .  A
N2579     Cu2585   2.080       .  S
C2580      C2581   1.382       .  A
C2580      H2583   1.082       .  S
C2581      C2582   1.379       .  A
C2582      H2584   1.082       .  S
Cu2585     N2588   2.080       .  S
Cu2586     N2596   2.065       .  S
Cu2587     N2589   2.068       .  S
Cu2587     N2595   2.068       .  S
N2588      N2589   1.321       .  A
N2588      C2592   1.345       .  A
N2589      C2590   1.343       .  A
C2590      C2591   1.388       .  A
C2590      H2593   1.081       .  S
C2591      C2592   1.391       .  A
C2592      H2594   1.081       .  S
N2595      N2596   1.322       .  A
N2595      C2599   1.345       .  A
N2596      C2597   1.343       .  A
C2597      C2598   1.379       .  A
C2597      H2600   1.082       .  S
C2598      C2599   1.380       .  A
C2599      H2601   1.082       .  S
C2602      C2603   1.403   1_455  A
C2602      C2607   1.403       .  A
C2602      C3608   1.473       .  S
C2603      C2604   1.402       .  A
C2603      H2608   1.084       .  S
C2604      C2605   1.400   1_655  A
C2605      C2606   1.400       .  A
C2605      H2609   1.084       .  S
C2606      C2607   1.402       .  A
C2607      H2610   1.084       .  S
C2611      C2612   1.403       .  A
C2611      C2616   1.403   1_455  A
C2611      C3611   1.474       .  S
C2612      C2613   1.402       .  A
C2612      H2617   1.084       .  S
C2613      C2614   1.400       .  A
C2614      C2615   1.400   1_455  A
C2614      H2618   1.084       .  S
C2615      C2616   1.402       .  A
C2615      C2698   1.466       .  S
C2616      H2619   1.084       .  S
C2620      C2621   1.405       .  A
C2620      C2625   1.405       .  A
C2620      C3598   1.479       .  S
C2621      C2622   1.401       .  A
C2621      H2626   1.084       .  S
C2622      C2623   1.399       .  A
C2623      C2624   1.399       .  A
C2623      H2627   1.084       .  S
C2624      C2625   1.401       .  A
C2625      H2628   1.084       .  S
C2629      C2630   1.405       .  A
C2629      C2634   1.405       .  A
C2629      C3601   1.478       .  S
C2630      C2631   1.401       .  A
C2630      H2635   1.084       .  S
C2631      C2632   1.399       .  A
C2631      C2715   1.465       .  S
C2632      C2633   1.399       .  A
C2632      H2636   1.084       .  S
C2633      C2634   1.401       .  A
C2633      C2781   1.465       .  S
C2634      H2637   1.084       .  S
N2638      N2639   1.320       .  A
N2638      C2642   1.344       .  A
N2638     Cu2646   2.075       .  S
N2639      C2640   1.344       .  A
N2639     Cu2645   2.071       .  S
C2640      C2641   1.389       .  A
C2640      H2643   1.081       .  S
C2641      C2642   1.390       .  A
C2641      C2688   1.490       .  S
C2642      H2644   1.081       .  S
Cu2645     N2648   2.071       .  S
Cu2646     N2656   2.075       .  S
Cu2647     N2649   2.076       .  S
Cu2647     N2655   2.076       .  S
N2648      N2649   1.323       .  A
N2648      C2652   1.345       .  A
N2649      C2650   1.345       .  A
C2650      C2651   1.381       .  A
C2650      H2653   1.082       .  S
C2651      C2652   1.380       .  A
C2651      C3045   1.466       .  S
C2652      H2654   1.082       .  S
N2655      N2656   1.323       .  A
N2655      C2659   1.346       .  A
N2656      C2657   1.346       .  A
C2657      C2658   1.381       .  A
C2657      H2660   1.082       .  S
C2658      C2659   1.381       .  A
C2659      H2661   1.082       .  S
N2662      N2663   1.323       .  A
N2662      C2666   1.345       .  A
N2662     Cu2670   2.074       .  S
N2663      C2664   1.345       .  A
N2663     Cu2669   2.071       .  S
C2664      C2665   1.380       .  A
C2664      H2667   1.082       .  S
C2665      C2666   1.380       .  A
C2666      H2668   1.082       .  S
Cu2669     N2672   2.071       .  S
Cu2670     N2680   2.074       .  S
Cu2671     N2673   2.072       .  S
Cu2671     N2679   2.072       .  S
N2672      N2673   1.323       .  A
N2672      C2676   1.345       .  A
N2673      C2674   1.345       .  A
C2674      C2675   1.380       .  A
C2674      H2677   1.082       .  S
C2675      C2676   1.380       .  A
C2675      C3342   1.465       .  S
C2676      H2678   1.082       .  S
N2679      N2680   1.320       .  A
N2679      C2683   1.344       .  A
N2680      C2681   1.344       .  A
C2681      C2682   1.390       .  A
C2681      H2684   1.081       .  S
C2682      C2683   1.389       .  A
C2682      C2686   1.490       .  S
C2683      H2685   1.081       .  S
C2686      C2687   1.406       .  A
C2686      C2691   1.406       .  A
C2687      C2688   1.406       .  A
C2687      H2692   1.078       .  S
C2688      C2689   1.406       .  A
C2689      C2690   1.406       .  A
C2689      H2693   1.078       .  S
C2690      C2691   1.406       .  A
C2690      C2708   1.490       .  S
C2691      H2694   1.078       .  S
N2695      N2696   1.323       .  A
N2695      C2699   1.345       .  A
N2695     Cu2703   2.075       .  S
N2696      C2697   1.345       .  A
N2696     Cu2702   2.073       .  S
C2697      C2698   1.380       .  A
C2697      H2700   1.082       .  S
C2698      C2699   1.381       .  A
C2699      H2701   1.082       .  S
Cu2702     N2705   2.073       .  S
Cu2703     N2713   2.075       .  S
Cu2704     N2706   2.070       .  S
Cu2704     N2712   2.070       .  S
N2705      N2706   1.320       .  A
N2705      C2709   1.344       .  A
N2706      C2707   1.343       .  A
C2707      C2708   1.389       .  A
C2707      H2710   1.081       .  S
C2708      C2709   1.390       .  A
C2709      H2711   1.081       .  S
N2712      N2713   1.323       .  A
N2712      C2716   1.345       .  A
N2713      C2714   1.345       .  A
C2714      C2715   1.381       .  A
C2714      H2717   1.082       .  S
C2715      C2716   1.379       .  A
C2716      H2718   1.082       .  S
C2719      C2720   1.408       .  A
C2719      C2724   1.408   1_455  A
C2719      C3591   1.488       .  S
C2720      C2721   1.401       .  A
C2720      H2725   1.084       .  S
C2721      C2722   1.398       .  A
C2722      C2723   1.398   1_455  A
C2722      H2726   1.084       .  S
C2723      C2724   1.401       .  A
C2723      C2863   1.465       .  S
C2724      H2727   1.084       .  S
C2728      C2729   1.408       .  A
C2728      C2733   1.408   1_455  A
C2728      C3588   1.488       .  S
C2729      C2730   1.401       .  A
C2729      H2734   1.084       .  S
C2730      C2731   1.399       .  A
C2731      C2732   1.399   1_455  A
C2731      H2735   1.084       .  S
C2732      C2733   1.401       .  A
C2732      C2797   1.466       .  S
C2733      H2736   1.084       .  S
N2737      N2738   1.323       .  A
N2737      C2741   1.346       .  A
N2737     Cu2745   2.074       .  S
N2738      C2739   1.346       .  A
N2738     Cu2744   2.076       .  S
C2739      C2740   1.381       .  A
C2739      H2742   1.082       .  S
C2740      C2741   1.381       .  A
C2741      H2743   1.082       .  S
Cu2744     N2747   2.076       .  S
Cu2745     N2755   2.074       .  S
Cu2746     N2748   2.075       .  S
Cu2746     N2754   2.075       .  S
N2747      N2748   1.320       .  A
N2747      C2751   1.345       .  A
N2748      C2749   1.344       .  A
C2749      C2750   1.390       .  A
C2749      H2752   1.081       .  S
C2750      C2751   1.390       .  A
C2750      C2787   1.492       .  S
C2751      H2753   1.081       .  S
N2754      N2755   1.323       .  A
N2754      C2758   1.345       .  A
N2755      C2756   1.345       .  A
C2756      C2757   1.380       .  A
C2756      H2759   1.082       .  S
C2757      C2758   1.380       .  A
C2758      H2760   1.082       .  S
N2761      N2762   1.323       .  A
N2761      C2765   1.346       .  A
N2761     Cu2769   2.069       .  S
N2762      C2763   1.345       .  A
N2762     Cu2768   2.079       .  S
C2763      C2764   1.381       .  A
C2763      H2766   1.082       .  S
C2764      C2765   1.380       .  A
C2764      C2822   1.467       .  S
C2765      H2767   1.082       .  S
Cu2768     N2771   2.079       .  S
Cu2769     N2779   2.068       .  S
Cu2770     N2772   2.074       .  S
Cu2770     N2778   2.074       .  S
N2771      N2772   1.321       .  A
N2771      C2775   1.345       .  A
N2772      C2773   1.344       .  A
C2773      C2774   1.390       .  A
C2773      H2776   1.081       .  S
C2774      C2775   1.391       .  A
C2774      C2789   1.492       .  S
C2775      H2777   1.081       .  S
N2778      N2779   1.323       .  A
N2778      C2782   1.345       .  A
N2779      C2780   1.344       .  A
C2780      C2781   1.379       .  A
C2780      H2783   1.082       .  S
C2781      C2782   1.381       .  A
C2782      H2784   1.082       .  S
C2785      C2786   1.407       .  A
C2785      C2790   1.407       .  A
C2785      C2807   1.492       .  S
C2786      C2787   1.406       .  A
C2786      H2791   1.078       .  S
C2787      C2788   1.406       .  A
C2788      C2789   1.407       .  A
C2788      H2792   1.078       .  S
C2789      C2790   1.406       .  A
C2790      H2793   1.078       .  S
N2794      N2795   1.323       .  A
N2794      C2798   1.345       .  A
N2794     Cu2802   2.070       .  S
N2795      C2796   1.345       .  A
N2795     Cu2801   2.075       .  S
C2796      C2797   1.381       .  A
C2796      H2799   1.082       .  S
C2797      C2798   1.380       .  A
C2798      H2800   1.082       .  S
Cu2801     N2804   2.075       .  S
Cu2802     N2812   2.070       .  S
Cu2803     N2805   2.074       .  S
Cu2803     N2811   2.074       .  S
N2804      N2805   1.320       .  A
N2804      C2808   1.345       .  A
N2805      C2806   1.344       .  A
C2806      C2807   1.390       .  A
C2806      H2809   1.081       .  S
C2807      C2808   1.390       .  A
C2808      H2810   1.081       .  S
N2811      N2812   1.323       .  A
N2811      C2815   1.345       .  A
N2812      C2813   1.345       .  A
C2813      C2814   1.379       .  A
C2813      H2816   1.082       .  S
C2814      C2815   1.380       .  A
C2815      H2817   1.082       .  S
C2818      C2819   1.411       .  A
C2818      C2823   1.411   1_455  A
C2818      C3578   1.499       .  S
C2819      C2820   1.402       .  A
C2819      H2824   1.082       .  S
C2820      C2821   1.397       .  A
C2821      C2822   1.397   1_455  A
C2821      H2825   1.084       .  S
C2822      C2823   1.402       .  A
C2823      H2826   1.082       .  S
C2827      C2828   1.411       .  A
C2827      C2832   1.411   1_455  A
C2827      C3581   1.498       .  S
C2828      C2829   1.402       .  A
C2828      H2833   1.083       .  S
C2829      C2830   1.397       .  A
C2830      C2831   1.397   1_455  A
C2830      H2834   1.084       .  S
C2831      C2832   1.401       .  A
C2831      C2896   1.465       .  S
C2832      H2835   1.082       .  S
N2836      N2837   1.320       .  A
N2836      C2840   1.344       .  A
N2836     Cu2844   2.073       .  S
N2837      C2838   1.344       .  A
N2837     Cu2843   2.071       .  S
C2838      C2839   1.390       .  A
C2838      H2841   1.081       .  S
C2839      C2840   1.390       .  A
C2839      C2886   1.490       .  S
C2840      H2842   1.081       .  S
Cu2843     N2846   2.071       .  S
Cu2844     N2854   2.073       .  S
Cu2845     N2847   2.073       .  S
Cu2845     N2853   2.073       .  S
N2846      N2847   1.323       .  A
N2846      C2850   1.345       .  A
N2847      C2848   1.345       .  A
C2848      C2849   1.380       .  A
C2848      H2851   1.082       .  S
C2849      C2850   1.380       .  A
C2850      H2852   1.082       .  S
N2853      N2854   1.323       .  A
N2853      C2857   1.345       .  A
N2854      C2855   1.345       .  A
C2855      C2856   1.380       .  A
C2855      H2858   1.082       .  S
C2856      C2857   1.380       .  A
C2857      H2859   1.082       .  S
N2860      N2861   1.323       .  A
N2860      C2864   1.345       .  A
N2860     Cu2868   2.072       .  S
N2861      C2862   1.345       .  A
N2861     Cu2867   2.071       .  S
C2862      C2863   1.380       .  A
C2862      H2865   1.082       .  S
C2863      C2864   1.380       .  A
C2864      H2866   1.082       .  S
Cu2867     N2870   2.071       .  S
Cu2868     N2878   2.072       .  S
Cu2869     N2871   2.071       .  S
Cu2869     N2877   2.071       .  S
N2870      N2871   1.323       .  A
N2870      C2874   1.344       .  A
N2871      C2872   1.345       .  A
C2872      C2873   1.380       .  A
C2872      H2875   1.082       .  S
C2873      C2874   1.380       .  A
C2874      H2876   1.082       .  S
N2877      N2878   1.320       .  A
N2877      C2881   1.343       .  A
N2878      C2879   1.344       .  A
C2879      C2880   1.390       .  A
C2879      H2882   1.081       .  S
C2880      C2881   1.389       .  A
C2880      C2884   1.490       .  S
C2881      H2883   1.081       .  S
C2884      C2885   1.406       .  A
C2884      C2889   1.406       .  A
C2885      C2886   1.405       .  A
C2885      H2890   1.078       .  S
C2886      C2887   1.406       .  A
C2887      C2888   1.406       .  A
C2887      H2891   1.078       .  S
C2888      C2889   1.406       .  A
C2888      C2906   1.490       .  S
C2889      H2892   1.078       .  S
N2893      N2894   1.323       .  A
N2893      C2897   1.345       .  A
N2893     Cu2901   2.067       .  S
N2894      C2895   1.344       .  A
N2894     Cu2900   2.076       .  S
C2895      C2896   1.381       .  A
C2895      H2898   1.082       .  S
C2896      C2897   1.379       .  A
C2897      H2899   1.082       .  S
Cu2900     N2903   2.076       .  S
Cu2901     N2911   2.067       .  S
Cu2902     N2904   2.069       .  S
Cu2902     N2910   2.069       .  S
N2903      N2904   1.320       .  A
N2903      C2907   1.344       .  A
N2904      C2905   1.343       .  A
C2905      C2906   1.389       .  A
C2905      H2908   1.081       .  S
C2906      C2907   1.390       .  A
C2907      H2909   1.081       .  S
N2910      N2911   1.323       .  A
N2910      C2914   1.344       .  A
N2911      C2912   1.344       .  A
C2912      C2913   1.379       .  A
C2912      H2915   1.082       .  S
C2913      C2914   1.380       .  A
C2914      H2916   1.082       .  S
C2917      C2918   1.403   1_565  A
C2917      C2922   1.402       .  A
C2917      C3568   1.471       .  S
C2918      C2919   1.401       .  A
C2918      H2923   1.084       .  S
C2919      C2920   1.400   1_545  A
C2920      C2921   1.400       .  A
C2920      H2924   1.084       .  S
C2921      C2922   1.400       .  A
C2921      C3260   1.464       .  S
C2922      H2925   1.084       .  S
C2926      C2927   1.402   1_565  A
C2926      C2931   1.402       .  A
C2926      C3571   1.471       .  S
C2927      C2928   1.401       .  A
C2927      H2932   1.084       .  S
C2928      C2929   1.400   1_545  A
C2929      C2930   1.400       .  A
C2929      H2933   1.084       .  S
C2930      C2931   1.401       .  A
C2930      C3101   1.464       .  S
C2931      H2934   1.084       .  S
C2935      C2936   1.410       .  A
C2935      C2940   1.409   1_455  A
C2935      C3558   1.493       .  S
C2936      C2937   1.402       .  A
C2936      H2941   1.083       .  S
C2937      C2938   1.398       .  A
C2938      C2939   1.398   1_455  A
C2938      H2942   1.084       .  S
C2939      C2940   1.401       .  A
C2939      C3403   1.465       .  S
C2940      H2943   1.083       .  S
C2944      C2945   1.409       .  A
C2944      C2949   1.410   1_455  A
C2944      C3561   1.493       .  S
C2945      C2946   1.401       .  A
C2945      H2950   1.083       .  S
C2946      C2947   1.398       .  A
C2947      C2948   1.398   1_455  A
C2947      H2951   1.084       .  S
C2948      C2949   1.402       .  A
C2948      C3132   1.466       .  S
C2949      H2952   1.083       .  S
N2953      N2954   1.323       .  A
N2953      C2957   1.345       .  A
N2953     Cu2961   2.070       .  S
N2954      C2955   1.344       .  A
N2954     Cu2960   2.073       .  S
C2955      C2956   1.380       .  A
C2955      H2958   1.082       .  S
C2956      C2957   1.380       .  A
C2956      C3171   1.465       .  S
C2957      H2959   1.082       .  S
Cu2960     N2963   2.073       .  S
Cu2961     N2971   2.070       .  S
Cu2962     N2964   2.074       .  S
Cu2962     N2970   2.074       .  S
N2963      N2964   1.320       .  A
N2963      C2967   1.344       .  A
N2964      C2965   1.344       .  A
C2965      C2966   1.390       .  A
C2965      H2968   1.081       .  S
C2966      C2967   1.390       .  A
C2966      C3003   1.491       .  S
C2967      H2969   1.081       .  S
N2970      N2971   1.323       .  A
N2970      C2974   1.345       .  A
N2971      C2972   1.345       .  A
C2972      C2973   1.379       .  A
C2972      H2975   1.082       .  S
C2973      C2974   1.380       .  A
C2973      C3308   1.465       .  S
C2974      H2976   1.082       .  S
N2977      N2978   1.323       .  A
N2977      C2981   1.344       .  A
N2977     Cu2985   2.067       .  S
N2978      C2979   1.345       .  A
N2978     Cu2984   2.073       .  S
C2979      C2980   1.380       .  A
C2979      H2982   1.082       .  S
C2980      C2981   1.379       .  A
C2980      C3056   1.464       .  S
C2981      H2983   1.082       .  S
Cu2984     N2987   2.073       .  S
Cu2985     N2995   2.067       .  S
Cu2986     N2988   2.077       .  S
Cu2986     N2994   2.077       .  S
N2987      N2988   1.320       .  A
N2987      C2991   1.344       .  A
N2988      C2989   1.345       .  A
C2989      C2990   1.390       .  A
C2989      H2992   1.081       .  S
C2990      C2991   1.390       .  A
C2990      C3001   1.491       .  S
C2991      H2993   1.081       .  S
N2994      N2995   1.323       .  A
N2994      C2998   1.345       .  A
N2995      C2996   1.346       .  A
C2996      C2997   1.379       .  A
C2996      H2999   1.082       .  S
C2997      C2998   1.381       .  A
C2997      C3191   1.466       .  S
C2998      H3000   1.082       .  S
C3001      C3002   1.407       .  A
C3001      C3006   1.407       .  A
C3002      C3003   1.407       .  A
C3002      H3007   1.078       .  S
C3003      C3004   1.406       .  A
C3004      C3005   1.405       .  A
C3004      H3008   1.078       .  S
C3005      C3006   1.406       .  A
C3005      C3023   1.490       .  S
C3006      H3009   1.078       .  S
N3010      N3011   1.323       .  A
N3010      C3014   1.345       .  A
N3010     Cu3018   2.075       .  S
N3011      C3012   1.345       .  A
N3011     Cu3017   2.071       .  S
C3012      C3013   1.380       .  A
C3012      H3015   1.082       .  S
C3013      C3014   1.381       .  A
C3013      C3074   1.466       .  S
C3014      H3016   1.082       .  S
Cu3017     N3020   2.071       .  S
Cu3018     N3028   2.075       .  S
Cu3019     N3021   2.073       .  S
Cu3019     N3027   2.073       .  S
N3020      N3021   1.320       .  A
N3020      C3024   1.344       .  A
N3021      C3022   1.344       .  A
C3022      C3023   1.390       .  A
C3022      H3025   1.081       .  S
C3023      C3024   1.389       .  A
C3024      H3026   1.081       .  S
N3027      N3028   1.323       .  A
N3027      C3031   1.345       .  A
N3028      C3029   1.345       .  A
C3029      C3030   1.381       .  A
C3029      H3032   1.082       .  S
C3030      C3031   1.380       .  A
C3030      C3324   1.466       .  S
C3031      H3033   1.082       .  S
C3034      C3035   1.404       .  A
C3034      C3039   1.404   1_554  A
C3034      C3551   1.476       .  S
C3035      C3036   1.402       .  A
C3035      H3040   1.084       .  S
C3036      C3037   1.400       .  A
C3037      C3038   1.400   1_554  A
C3037      H3041   1.084       .  S
C3038      C3039   1.401       .  A
C3038      C3226   1.465       .  S
C3039      H3042   1.084       .  S
C3043      C3044   1.404       .  A
C3043      C3048   1.404   1_554  A
C3043      C3548   1.476       .  S
C3044      C3045   1.402       .  A
C3044      H3049   1.084       .  S
C3045      C3046   1.400       .  A
C3046      C3047   1.400   1_554  A
C3046      H3050   1.084       .  S
C3047      C3048   1.401       .  A
C3047      C3379   1.465       .  S
C3048      H3051   1.084       .  S
C3052      C3053   1.403       .  A
C3052      C3057   1.402       .  A
C3052      C3538   1.471       .  S
C3053      C3054   1.401       .  A
C3053      H3058   1.084       .  S
C3054      C3055   1.400       .  A
C3055      C3056   1.400       .  A
C3055      H3059   1.084       .  S
C3056      C3057   1.401       .  A
C3057      H3060   1.084       .  S
C3061      C3062   1.402       .  A
C3061      C3066   1.403       .  A
C3061      C3541   1.471       .  S
C3062      C3063   1.401       .  A
C3062      H3067   1.084       .  S
C3063      C3064   1.400       .  A
C3064      C3065   1.400       .  A
C3064      H3068   1.084       .  S
C3065      C3066   1.401       .  A
C3065      C3108   1.465       .  S
C3066      H3069   1.084       .  S
C3070      C3071   1.404       .  A
C3070      C3075   1.404       .  A
C3070      C3528   1.476       .  S
C3071      C3072   1.402       .  A
C3071      H3076   1.084       .  S
C3072      C3073   1.400       .  A
C3073      C3074   1.400       .  A
C3073      H3077   1.084       .  S
C3074      C3075   1.402       .  A
C3075      H3078   1.084       .  S
C3079      C3080   1.404       .  A
C3079      C3084   1.404       .  A
C3079      C3531   1.476       .  S
C3080      C3081   1.402       .  A
C3080      H3085   1.084       .  S
C3081      C3082   1.400       .  A
C3082      C3083   1.400       .  A
C3082      H3086   1.084       .  S
C3083      C3084   1.402       .  A
C3083      C3115   1.467       .  S
C3084      H3087   1.084       .  S
N3088      N3089   1.320       .  A
N3088      C3092   1.344       .  A
N3088     Cu3096   2.073       .  S
N3089      C3090   1.344       .  A
N3089     Cu3095   2.071       .  S
C3090      C3091   1.389       .  A
C3090      H3093   1.081       .  S
C3091      C3092   1.390       .  A
C3091      C3138   1.490       .  S
C3092      H3094   1.081       .  S
Cu3095     N3098   2.071       .  S
Cu3096     N3106   2.073       .  S
Cu3097     N3099   2.070       .  S
Cu3097     N3105   2.070       .  S
N3098      N3099   1.323       .  A
N3098      C3102   1.345       .  A
N3099      C3100   1.345       .  A
C3100      C3101   1.380       .  A
C3100      H3103   1.082       .  S
C3101      C3102   1.380       .  A
C3102      H3104   1.082       .  S
N3105      N3106   1.323       .  A
N3105      C3109   1.345       .  A
N3106      C3107   1.345       .  A
C3107      C3108   1.380       .  A
C3107      H3110   1.082       .  S
C3108      C3109   1.380       .  A
C3109      H3111   1.082       .  S
N3112      N3113   1.323       .  A
N3112      C3116   1.346       .  A
N3112     Cu3120   2.077       .  S
N3113      C3114   1.345       .  A
N3113     Cu3119   2.072       .  S
C3114      C3115   1.380       .  A
C3114      H3117   1.082       .  S
C3115      C3116   1.381       .  A
C3116      H3118   1.082       .  S
Cu3119     N3122   2.072       .  S
Cu3120     N3130   2.077       .  S
Cu3121     N3123   2.068       .  S
Cu3121     N3129   2.068       .  S
N3122      N3123   1.320       .  A
N3122      C3126   1.344       .  A
N3123      C3124   1.343       .  A
C3124      C3125   1.389       .  A
C3124      H3127   1.081       .  S
C3125      C3126   1.390       .  A
C3125      C3140   1.489       .  S
C3126      H3128   1.081       .  S
N3129      N3130   1.323       .  A
N3129      C3133   1.345       .  A
N3130      C3131   1.345       .  A
C3131      C3132   1.381       .  A
C3131      H3134   1.082       .  S
C3132      C3133   1.380       .  A
C3133      H3135   1.082       .  S
C3136      C3137   1.407       .  A
C3136      C3141   1.405       .  A
C3136      C3158   1.490       .  S
C3137      C3138   1.406       .  A
C3137      H3142   1.078       .  S
C3138      C3139   1.405       .  A
C3139      C3140   1.405       .  A
C3139      H3143   1.078       .  S
C3140      C3141   1.406       .  A
C3141      H3144   1.078       .  S
N3145      N3146   1.323       .  A
N3145      C3149   1.344       .  A
N3145     Cu3153   2.069       .  S
N3146      C3147   1.345       .  A
N3146     Cu3152   2.070       .  S
C3147      C3148   1.380       .  A
C3147      H3150   1.082       .  S
C3148      C3149   1.379       .  A
C3148      C3218   1.464       .  S
C3149      H3151   1.082       .  S
Cu3152     N3155   2.070       .  S
Cu3153     N3163   2.069       .  S
Cu3154     N3156   2.076       .  S
Cu3154     N3162   2.076       .  S
N3155      N3156   1.320       .  A
N3155      C3159   1.343       .  A
N3156      C3157   1.344       .  A
C3157      C3158   1.391       .  A
C3157      H3160   1.081       .  S
C3158      C3159   1.389       .  A
C3159      H3161   1.081       .  S
N3162      N3163   1.323       .  A
N3162      C3166   1.345       .  A
N3163      C3164   1.345       .  A
C3164      C3165   1.379       .  A
C3164      H3167   1.082       .  S
C3165      C3166   1.381       .  A
C3165      C3362   1.465       .  S
C3166      H3168   1.082       .  S
C3169      C3170   1.409       .  A
C3169      C3174   1.409       .  A
C3169      C3518   1.492       .  S
C3170      C3171   1.401       .  A
C3170      H3175   1.083       .  S
C3171      C3172   1.398       .  A
C3172      C3173   1.398       .  A
C3172      H3176   1.084       .  S
C3173      C3174   1.402       .  A
C3174      H3177   1.083       .  S
C3178      C3179   1.409       .  A
C3178      C3183   1.409       .  A
C3178      C3521   1.492       .  S
C3179      C3180   1.401       .  A
C3179      H3184   1.083       .  S
C3180      C3181   1.398       .  A
C3181      C3182   1.398       .  A
C3181      H3185   1.084       .  S
C3182      C3183   1.401       .  A
C3182      C3243   1.465       .  S
C3183      H3186   1.083       .  S
C3187      C3188   1.411       .  A
C3187      C3192   1.411       .  A
C3187      C3508   1.497       .  S
C3188      C3189   1.402       .  A
C3188      H3193   1.083       .  S
C3189      C3190   1.397       .  A
C3190      C3191   1.397       .  A
C3190      H3194   1.084       .  S
C3191      C3192   1.401       .  A
C3192      H3195   1.083       .  S
C3196      C3197   1.411       .  A
C3196      C3201   1.411       .  A
C3196      C3511   1.497       .  S
C3197      C3198   1.402       .  A
C3197      H3202   1.083       .  S
C3198      C3199   1.397       .  A
C3199      C3200   1.397       .  A
C3199      H3203   1.084       .  S
C3200      C3201   1.401       .  A
C3200      C3267   1.466       .  S
C3201      H3204   1.083       .  S
C3205      C3206   1.403   1_565  A
C3205      C3210   1.403       .  A
C3205      C3498   1.472       .  S
C3206      C3207   1.401       .  A
C3206      H3211   1.084       .  S
C3207      C3208   1.400   1_545  A
C3208      C3209   1.400       .  A
C3208      H3212   1.084       .  S
C3209      C3210   1.401       .  A
C3209      C3293   1.465       .  S
C3210      H3213   1.084       .  S
C3214      C3215   1.403   1_565  A
C3214      C3219   1.402       .  A
C3214      C3501   1.472       .  S
C3215      C3216   1.401       .  A
C3215      H3220   1.084       .  S
C3216      C3217   1.400   1_545  A
C3217      C3218   1.400       .  A
C3217      H3221   1.084       .  S
C3218      C3219   1.401       .  A
C3219      H3222   1.084       .  S
N3223      N3224   1.323       .  A
N3223      C3227   1.345       .  A
N3223     Cu3231   2.070       .  S
N3224      C3225   1.345       .  A
N3224     Cu3230   2.075       .  S
C3225      C3226   1.381       .  A
C3225      H3228   1.082       .  S
C3226      C3227   1.379       .  A
C3227      H3229   1.082       .  S
Cu3230     N3233   2.075       .  S
Cu3231     N3241   2.070       .  S
Cu3232     N3234   2.072       .  S
Cu3232     N3240   2.073       .  S
N3233      N3234   1.320       .  A
N3233      C3237   1.344       .  A
N3234      C3235   1.344       .  A
C3235      C3236   1.389       .  A
C3235      H3238   1.081       .  S
C3236      C3237   1.390       .  A
C3236      C3273   1.491       .  S
C3237      H3239   1.081       .  S
N3240      N3241   1.323       .  A
N3240      C3244   1.344       .  A
N3241      C3242   1.345       .  A
C3242      C3243   1.380       .  A
C3242      H3245   1.082       .  S
C3243      C3244   1.380       .  A
C3244      H3246   1.082       .  S
N3247      N3248   1.321       .  A
N3247      C3251   1.345       .  A
N3247     Cu3255   2.077       .  S
N3248      C3249   1.344       .  A
N3248     Cu3254   2.074       .  S
C3249      C3250   1.390       .  A
C3249      H3252   1.081       .  S
C3250      C3251   1.390       .  A
C3250      C3275   1.492       .  S
C3251      H3253   1.081       .  S
Cu3254     N3257   2.074       .  S
Cu3255     N3265   2.078       .  S
Cu3256     N3258   2.066       .  S
Cu3256     N3264   2.067       .  S
N3257      N3258   1.323       .  A
N3257      C3261   1.345       .  A
N3258      C3259   1.344       .  A
C3259      C3260   1.379       .  A
C3259      H3262   1.082       .  S
C3260      C3261   1.381       .  A
C3261      H3263   1.082       .  S
N3264      N3265   1.323       .  A
N3264      C3268   1.345       .  A
N3265      C3266   1.345       .  A
C3266      C3267   1.381       .  A
C3266      H3269   1.082       .  S
C3267      C3268   1.379       .  A
C3268      H3270   1.082       .  S
C3271      C3272   1.405       .  A
C3271      C3276   1.406       .  A
C3271      C3283   1.491       .  S
C3272      C3273   1.406       .  A
C3272      H3277   1.078       .  S
C3273      C3274   1.407       .  A
C3274      C3275   1.407       .  A
C3274      H3278   1.078       .  S
C3275      C3276   1.407       .  A
C3276      H3279   1.078       .  S
N3280      N3281   1.320       .  A
N3280      C3284   1.344       .  A
N3280     Cu3288   2.074       .  S
N3281      C3282   1.344       .  A
N3281     Cu3287   2.071       .  S
C3282      C3283   1.389       .  A
C3282      H3285   1.081       .  S
C3283      C3284   1.390       .  A
C3284      H3286   1.081       .  S
Cu3287     N3290   2.071       .  S
Cu3288     N3298   2.074       .  S
Cu3289     N3291   2.073       .  S
Cu3289     N3297   2.073       .  S
N3290      N3291   1.323       .  A
N3290      C3294   1.345       .  A
N3291      C3292   1.345       .  A
C3292      C3293   1.380       .  A
C3292      H3295   1.082       .  S
C3293      C3294   1.380       .  A
C3294      H3296   1.082       .  S
N3297      N3298   1.323       .  A
N3297      C3301   1.345       .  A
N3298      C3299   1.345       .  A
C3299      C3300   1.380       .  A
C3299      H3302   1.082       .  S
C3300      C3301   1.380       .  A
C3300      C3351   1.466       .  S
C3301      H3303   1.082       .  S
C3304      C3305   1.406       .  A
C3304      C3309   1.406       .  A
C3304      C3488   1.484       .  S
C3305      C3306   1.401       .  A
C3305      H3310   1.084       .  S
C3306      C3307   1.399       .  A
C3307      C3308   1.399       .  A
C3307      H3311   1.084       .  S
C3308      C3309   1.401       .  A
C3309      H3312   1.084       .  S
C3313      C3314   1.406       .  A
C3313      C3318   1.406       .  A
C3313      C3491   1.484       .  S
C3314      C3315   1.401       .  A
C3314      H3319   1.084       .  S
C3315      C3316   1.399       .  A
C3316      C3317   1.399       .  A
C3316      H3320   1.084       .  S
C3317      C3318   1.401       .  A
C3317      C3389   1.465       .  S
C3318      H3321   1.084       .  S
C3322      C3323   1.404       .  A
C3322      C3327   1.404       .  A
C3322      C3478   1.476       .  S
C3323      C3324   1.402       .  A
C3323      H3328   1.084       .  S
C3324      C3325   1.400       .  A
C3325      C3326   1.400       .  A
C3325      H3329   1.084       .  S
C3326      C3327   1.401       .  A
C3327      H3330   1.084       .  S
C3331      C3332   1.403       .  A
C3331      C3336   1.404       .  A
C3331      C3481   1.475       .  S
C3332      C3333   1.401       .  A
C3332      H3337   1.084       .  S
C3333      C3334   1.400       .  A
C3334      C3335   1.400       .  A
C3334      H3338   1.084       .  S
C3335      C3336   1.402       .  A
C3335      C3420   1.466       .  S
C3336      H3339   1.084       .  S
C3340      C3341   1.406       .  A
C3340      C3345   1.405   1_554  A
C3340      C3468   1.482       .  S
C3341      C3342   1.401       .  A
C3341      H3346   1.084       .  S
C3342      C3343   1.399       .  A
C3343      C3344   1.398   1_554  A
C3343      H3347   1.084       .  S
C3344      C3345   1.400       .  A
C3344      C3436   1.463       .  S
C3345      H3348   1.084       .  S
C3349      C3350   1.407   1_554  A
C3349      C3354   1.406       .  A
C3349      C3471   1.483       .  S
C3350      C3351   1.401       .  A
C3350      H3355   1.084       .  S
C3351      C3352   1.399   1_556  A
C3352      C3353   1.399       .  A
C3352      H3356   1.084       .  S
C3353      C3354   1.401       .  A
C3354      H3357   1.084       .  S
C3358      C3359   1.409       .  A
C3358      C3363   1.410   1_455  A
C3358      C3458   1.492       .  S
C3359      C3360   1.400       .  A
C3359      H3364   1.083       .  S
C3360      C3361   1.397       .  A
C3361      C3362   1.397   1_455  A
C3361      H3365   1.084       .  S
C3362      C3363   1.401       .  A
C3363      H3366   1.083       .  S
C3367      C3368   1.409   1_455  A
C3367      C3372   1.409       .  A
C3367      C3461   1.492       .  S
C3368      C3369   1.401       .  A
C3368      H3373   1.083       .  S
C3369      C3370   1.397   1_655  A
C3369      C3446   1.464       .  S
C3370      C3371   1.397       .  A
C3370      H3374   1.084       .  S
C3371      C3372   1.401       .  A
C3372      H3375   1.083       .  S
N3376      N3377   1.323       .  A
N3376      C3380   1.345       .  A
N3376     Cu3384   2.073       .  S
N3377      C3378   1.345       .  A
N3377     Cu3383   2.071       .  S
C3378      C3379   1.380       .  A
C3378      H3381   1.082       .  S
C3379      C3380   1.380       .  A
C3380      H3382   1.082       .  S
Cu3383     N3386   2.071       .  S
Cu3384     N3394   2.072       .  S
Cu3385     N3387   2.071       .  S
Cu3385     N3393   2.071       .  S
N3386      N3387   1.323       .  A
N3386      C3390   1.345       .  A
N3387      C3388   1.345       .  A
C3388      C3389   1.380       .  A
C3388      H3391   1.082       .  S
C3389      C3390   1.380       .  A
C3390      H3392   1.082       .  S
N3393      N3394   1.320       .  A
N3393      C3397   1.343       .  A
N3394      C3395   1.344       .  A
C3395      C3396   1.390       .  A
C3395      H3398   1.081       .  S
C3396      C3397   1.389       .  A
C3396      C3424   1.489       .  S
C3397      H3399   1.081       .  S
N3400      N3401   1.323       .  A
N3400      C3404   1.345       .  A
N3400     Cu3408   2.076       .  S
N3401      C3402   1.345       .  A
N3401     Cu3407   2.068       .  S
C3402      C3403   1.379       .  A
C3402      H3405   1.082       .  S
C3403      C3404   1.381       .  A
C3404      H3406   1.082       .  S
Cu3407     N3410   2.067       .  S
Cu3408     N3418   2.076       .  S
Cu3409     N3411   2.071       .  S
Cu3409     N3417   2.071       .  S
N3410      N3411   1.320       .  A
N3410      C3414   1.343       .  A
N3411      C3412   1.344       .  A
C3412      C3413   1.390       .  A
C3412      H3415   1.081       .  S
C3413      C3414   1.389       .  A
C3413      C3428   1.489       .  S
C3414      H3416   1.081       .  S
N3417      N3418   1.323       .  A
N3417      C3421   1.345       .  A
N3418      C3419   1.345       .  A
C3419      C3420   1.381       .  A
C3419      H3422   1.082       .  S
C3420      C3421   1.379       .  A
C3421      H3423   1.082       .  S
C3424      C3425   1.406       .  A
C3424      C3429   1.405       .  A
C3425      C3426   1.406       .  A
C3425      H3430   1.078       .  S
C3426      C3427   1.405       .  A
C3426      C3453   1.489       .  S
C3427      C3428   1.405       .  A
C3427      H3431   1.078       .  S
C3428      C3429   1.405       .  A
C3429      H3432   1.078       .  S
N3433      N3434   1.323       .  A
N3433      C3437   1.345       .  A
N3433     Cu3441   2.070       .  S
N3434      C3435   1.344       .  A
N3434     Cu3440   2.067       .  S
C3435      C3436   1.379       .  A
C3435      H3438   1.082       .  S
C3436      C3437   1.380       .  A
C3437      H3439   1.082       .  S
Cu3440     N3443   2.067       .  S
Cu3441     N3451   2.069       .  S
Cu3442     N3444   2.074       .  S
Cu3442     N3450   2.074       .  S
N3443      N3444   1.323       .  A
N3443      C3447   1.345       .  A
N3444      C3445   1.344       .  A
C3445      C3446   1.380       .  A
C3445      H3448   1.082       .  S
C3446      C3447   1.379       .  A
C3447      H3449   1.082       .  S
N3450      N3451   1.320       .  A
N3450      C3454   1.344       .  A
N3451      C3452   1.343       .  A
C3452      C3453   1.389       .  A
C3452      H3455   1.081       .  S
C3453      C3454   1.390       .  A
C3454      H3456   1.081       .  S
C3457      C3458   1.409   1_655  A
C3457      C3462   1.398       .  A
C3457      F3464   1.358       .  S
C3458      C3459   1.410       .  A
C3459      C3460   1.399       .  A
C3459      F3466   1.358       .  S
C3460      C3461   1.410       .  A
C3460      F3465   1.358       .  S
C3461      C3462   1.410   1_455  A
C3462      F3463   1.358       .  S
C3467      C3468   1.407       .  A
C3467      C3472   1.399       .  A
C3467      F3474   1.358       .  S
C3468      C3469   1.407   1_554  A
C3469      C3470   1.399       .  A
C3469      F3476   1.358       .  S
C3470      C3471   1.407   1_556  A
C3470      F3475   1.358       .  S
C3471      C3472   1.407       .  A
C3472      F3473   1.358       .  S
C3477      C3478   1.405       .  A
C3477      C3482   1.399       .  A
C3477      F3484   1.358       .  S
C3478      C3479   1.405       .  A
C3479      C3480   1.399       .  A
C3479      F3486   1.358       .  S
C3480      C3481   1.405       .  A
C3480      F3485   1.358       .  S
C3481      C3482   1.404       .  A
C3482      F3483   1.358       .  S
C3487      C3488   1.407       .  A
C3487      C3492   1.398       .  A
C3487      F3494   1.358       .  S
C3488      C3489   1.407       .  A
C3489      C3490   1.399       .  A
C3489      F3496   1.358       .  S
C3490      C3491   1.407       .  A
C3490      F3495   1.358       .  S
C3491      C3492   1.407       .  A
C3492      F3493   1.358       .  S
C3497      C3498   1.404   1_545  A
C3497      C3502   1.399       .  A
C3497      F3504   1.358       .  S
C3498      C3499   1.404       .  A
C3499      C3500   1.399       .  A
C3499      F3506   1.358       .  S
C3500      C3501   1.404       .  A
C3500      F3505   1.358       .  S
C3501      C3502   1.404   1_565  A
C3502      F3503   1.358       .  S
C3507      C3508   1.411       .  A
C3507      C3512   1.399       .  A
C3507      F3514   1.358       .  S
C3508      C3509   1.411       .  A
C3509      C3510   1.399       .  A
C3509      F3516   1.358       .  S
C3510      C3511   1.411       .  A
C3510      F3515   1.358       .  S
C3511      C3512   1.411       .  A
C3512      F3513   1.358       .  S
C3517      C3518   1.409       .  A
C3517      C3522   1.399       .  A
C3517      F3524   1.358       .  S
C3518      C3519   1.409       .  A
C3519      C3520   1.399       .  A
C3519      F3526   1.358       .  S
C3520      C3521   1.409       .  A
C3520      F3525   1.358       .  S
C3521      C3522   1.409       .  A
C3522      F3523   1.358       .  S
C3527      C3528   1.405       .  A
C3527      C3532   1.400       .  A
C3527      F3534   1.358       .  S
C3528      C3529   1.405       .  A
C3529      C3530   1.399       .  A
C3529      F3536   1.358       .  S
C3530      C3531   1.405       .  A
C3530      F3535   1.358       .  S
C3531      C3532   1.405       .  A
C3532      F3533   1.358       .  S
C3537      C3538   1.403       .  A
C3537      C3542   1.399       .  A
C3537      F3544   1.358       .  S
C3538      C3539   1.404       .  A
C3539      C3540   1.399       .  A
C3539      F3546   1.358       .  S
C3540      C3541   1.404       .  A
C3540      F3545   1.358       .  S
C3541      C3542   1.404       .  A
C3542      F3543   1.358       .  S
C3547      C3548   1.405       .  A
C3547      C3552   1.400       .  A
C3547      F3554   1.358       .  S
C3548      C3549   1.405   1_554  A
C3549      C3550   1.399       .  A
C3549      F3556   1.358       .  S
C3550      C3551   1.405   1_556  A
C3550      F3555   1.358       .  S
C3551      C3552   1.405       .  A
C3552      F3553   1.358       .  S
C3557      C3558   1.410       .  A
C3557      C3562   1.400       .  A
C3557      F3564   1.358       .  S
C3558      C3559   1.410   1_455  A
C3559      C3560   1.399       .  A
C3559      F3566   1.358       .  S
C3560      C3561   1.409   1_655  A
C3560      F3565   1.358       .  S
C3561      C3562   1.410       .  A
C3562      F3563   1.358       .  S
C3567      C3568   1.404   1_545  A
C3567      C3572   1.399       .  A
C3567      F3574   1.358       .  S
C3568      C3569   1.404       .  A
C3569      C3570   1.399       .  A
C3569      F3576   1.358       .  S
C3570      C3571   1.404       .  A
C3570      F3575   1.358       .  S
C3571      C3572   1.404   1_565  A
C3572      F3573   1.358       .  S
C3577      C3578   1.411   1_655  A
C3577      C3582   1.400       .  A
C3577      F3584   1.357       .  S
C3578      C3579   1.411       .  A
C3579      C3580   1.400       .  A
C3579      F3586   1.357       .  S
C3580      C3581   1.411       .  A
C3580      F3585   1.358       .  S
C3581      C3582   1.411   1_455  A
C3582      F3583   1.357       .  S
C3587      C3588   1.408       .  A
C3587      C3592   1.399       .  A
C3587      F3594   1.358       .  S
C3588      C3589   1.408   1_455  A
C3589      C3590   1.399       .  A
C3589      F3596   1.358       .  S
C3590      C3591   1.408   1_655  A
C3590      F3595   1.358       .  S
C3591      C3592   1.408       .  A
C3592      F3593   1.358       .  S
C3597      C3598   1.406       .  A
C3597      C3602   1.399       .  A
C3597      F3604   1.358       .  S
C3598      C3599   1.406       .  A
C3599      C3600   1.399       .  A
C3599      F3606   1.358       .  S
C3600      C3601   1.405       .  A
C3600      F3605   1.358       .  S
C3601      C3602   1.406       .  A
C3602      F3603   1.358       .  S
C3607      C3608   1.404       .  A
C3607      C3612   1.400       .  A
C3607      F3614   1.358       .  S
C3608      C3609   1.404   1_455  A
C3609      C3610   1.400       .  A
C3609      F3616   1.358       .  S
C3610      C3611   1.404   1_655  A
C3610      F3615   1.358       .  S
C3611      C3612   1.404       .  A
C3612      F3613   1.358       .  S
C3617      C3618   1.404       .  A
C3617      C3622   1.398       .  A
C3617      F3624   1.358       .  S
C3618      C3619   1.404       .  A
C3619      C3620   1.398       .  A
C3619      F3626   1.358       .  S
C3620      C3621   1.403       .  A
C3620      F3625   1.358       .  S
C3621      C3622   1.404       .  A
C3622      F3623   1.358       .  S
C3627      C3628   1.414       .  A
C3627      C3632   1.401       .  A
C3627      F3634   1.356       .  S
C3628      C3629   1.414   1_455  A
C3629      C3630   1.401       .  A
C3629      F3636   1.356       .  S
C3630      C3631   1.416   1_655  A
C3630      F3635   1.356       .  S
C3631      C3632   1.416       .  A
C3632      F3633   1.356       .  S
C3637      C3638   1.404       .  A
C3637      C3642   1.400       .  A
C3637      F3644   1.358       .  S
C3638      C3639   1.404       .  A
C3639      C3640   1.400       .  A
C3639      F3646   1.358       .  S
C3640      C3641   1.404       .  A
C3640      F3645   1.358       .  S
C3641      C3642   1.404       .  A
C3642      F3643   1.358       .  S
C3647      C3648   1.410       .  A
C3647      C3652   1.399       .  A
C3647      F3654   1.358       .  S
C3648      C3649   1.410   1_455  A
C3649      C3650   1.399       .  A
C3649      F3656   1.358       .  S
C3650      C3651   1.410   1_655  A
C3650      F3655   1.358       .  S
C3651      C3652   1.409       .  A
C3652      F3653   1.358       .  S
C3657      C3658   1.407       .  A
C3657      C3662   1.398       .  A
C3657      F3664   1.358       .  S
C3658      C3659   1.407   1_554  A
C3659      C3660   1.399       .  A
C3659      F3666   1.358       .  S
C3660      C3661   1.407   1_556  A
C3660      F3665   1.358       .  S
C3661      C3662   1.407       .  A
C3662      F3663   1.358       .  S
C3667      C3668   1.407       .  A
C3667      C3672   1.399       .  A
C3667      F3674   1.358       .  S
C3668      C3669   1.407       .  A
C3669      C3670   1.399       .  A
C3669      F3676   1.358       .  S
C3670      C3671   1.407       .  A
C3670      F3675   1.358       .  S
C3671      C3672   1.407       .  A
C3672      F3673   1.358       .  S
C3677      C3678   1.404       .  A
C3677      C3682   1.400       .  A
C3677      F3684   1.358       .  S
C3678      C3679   1.404   1_554  A
C3679      C3680   1.399       .  A
C3679      F3686   1.358       .  S
C3680      C3681   1.404   1_556  A
C3680      F3685   1.358       .  S
C3681      C3682   1.404       .  A
C3682      F3683   1.358       .  S
C3687      C3688   1.404       .  A
C3687      C3692   1.399       .  A
C3687      F3694   1.358       .  S
C3688      C3689   1.404   1_554  A
C3689      C3690   1.400       .  A
C3689      F3696   1.358       .  S
C3690      C3691   1.404   1_556  A
C3690      F3695   1.358       .  S
C3691      C3692   1.404       .  A
C3692      F3693   1.358       .  S
C3697      C3698   1.404   1_556  A
C3697      C3702   1.399       .  A
C3697      F3704   1.358       .  S
C3698      C3699   1.404       .  A
C3699      C3700   1.399       .  A
C3699      F3706   1.358       .  S
C3700      C3701   1.404       .  A
C3700      F3705   1.358       .  S
C3701      C3702   1.404   1_554  A
C3702      F3703   1.358       .  S
C3707      C3708   1.404       .  A
C3707      C3712   1.400       .  A
C3707      F3714   1.358       .  S
C3708      C3709   1.404       .  A
C3709      C3710   1.400       .  A
C3709      F3716   1.358       .  S
C3710      C3711   1.404       .  A
C3710      F3715   1.358       .  S
C3711      C3712   1.404       .  A
C3712      F3713   1.358       .  S
C3717      C3718   1.404       .  A
C3717      C3722   1.399       .  A
C3717      F3724   1.358       .  S
C3718      C3719   1.404       .  A
C3719      C3720   1.400       .  A
C3719      F3726   1.358       .  S
C3720      C3721   1.404       .  A
C3720      F3725   1.358       .  S
C3721      C3722   1.404       .  A
C3722      F3723   1.358       .  S
C3727      C3728   1.410   1_556  A
C3727      C3732   1.399       .  A
C3727      F3734   1.358       .  S
C3728      C3729   1.410       .  A
C3729      C3730   1.399       .  A
C3729      F3736   1.358       .  S
C3730      C3731   1.410       .  A
C3730      F3735   1.358       .  S
C3731      C3732   1.410   1_554  A
C3732      F3733   1.358       .  S
C3737      C3738   1.403   1_545  A
C3737      C3742   1.399       .  A
C3737      F3744   1.358       .  S
C3738      C3739   1.404       .  A
C3739      C3740   1.399       .  A
C3739      F3746   1.358       .  S
C3740      C3741   1.404       .  A
C3740      F3745   1.358       .  S
C3741      C3742   1.404   1_565  A
C3742      F3743   1.358       .  S
C3747      C3748   1.404   1_545  A
C3747      C3752   1.400       .  A
C3747      F3754   1.358       .  S
C3748      C3749   1.404       .  A
C3749      C3750   1.399       .  A
C3749      F3756   1.358       .  S
C3750      C3751   1.404       .  A
C3750      F3755   1.358       .  S
C3751      C3752   1.404   1_565  A
C3752      F3753   1.358       .  S
C3757      C3758   1.405       .  A
C3757      C3762   1.400       .  A
C3757      F3764   1.358       .  S
C3758      C3759   1.405   1_565  A
C3759      C3760   1.399       .  A
C3759      F3766   1.358       .  S
C3760      C3761   1.405   1_545  A
C3760      F3765   1.358       .  S
C3761      C3762   1.405       .  A
C3762      F3763   1.358       .  S
C3767      C3768   1.404       .  A
C3767      C3772   1.400       .  A
C3767      F3774   1.358       .  S
C3768      C3769   1.404       .  A
C3769      C3770   1.399       .  A
C3769      F3776   1.358       .  S
C3770      C3771   1.404       .  A
C3770      F3775   1.358       .  S
C3771      C3772   1.404       .  A
C3772      F3773   1.358       .  S
C3777      C3778   1.404   1_545  A
C3777      C3782   1.399       .  A
C3777      F3784   1.358       .  S
C3778      C3779   1.404       .  A
C3779      C3780   1.399       .  A
C3779      F3786   1.358       .  S
C3780      C3781   1.404       .  A
C3780      F3785   1.358       .  S
C3781      C3782   1.404   1_565  A
C3782      F3783   1.358       .  S
C3787      C3788   1.406       .  A
C3787      C3792   1.399       .  A
C3787      F3794   1.358       .  S
C3788      C3789   1.406       .  A
C3789      C3790   1.399       .  A
C3789      F3796   1.358       .  S
C3790      C3791   1.406       .  A
C3790      F3795   1.358       .  S
C3791      C3792   1.406       .  A
C3792      F3793   1.358       .  S
C3797      C3798   1.405   1_545  A
C3797      C3802   1.400       .  A
C3797      F3804   1.358       .  S
C3798      C3799   1.404       .  A
C3799      C3800   1.399       .  A
C3799      F3806   1.358       .  S
C3800      C3801   1.404       .  A
C3800      F3805   1.358       .  S
C3801      C3802   1.404   1_565  A
C3802      F3803   1.358       .  S
C3807      C3808   1.405       .  A
C3807      C3812   1.399       .  A
C3807      F3814   1.358       .  S
C3808      C3809   1.405       .  A
C3809      C3810   1.399       .  A
C3809      F3816   1.358       .  S
C3810      C3811   1.405       .  A
C3810      F3815   1.358       .  S
C3811      C3812   1.405       .  A
C3812      F3813   1.358       .  S
C3817      C3818   1.409       .  A
C3817      C3822   1.400       .  A
C3817      F3824   1.358       .  S
C3818      C3819   1.408       .  A
C3819      C3820   1.399       .  A
C3819      F3826   1.358       .  S
C3820      C3821   1.408       .  A
C3820      F3825   1.358       .  S
C3821      C3822   1.408       .  A
C3822      F3823   1.358       .  S
C3827      C3828   1.404       .  A
C3827      C3832   1.400       .  A
C3827      F3834   1.358       .  S
C3828      C3829   1.404       .  A
C3829      C3830   1.401       .  A
C3829      F3836   1.358       .  S
C3830      C3831   1.404       .  A
C3830      F3835   1.358       .  S
C3831      C3832   1.404       .  A
C3832      F3833   1.358       .  S
C3837      C3838   1.404       .  A
C3837      C3842   1.399       .  A
C3837      F3844   1.358       .  S
C3838      C3839   1.404   1_565  A
C3839      C3840   1.399       .  A
C3839      F3846   1.358       .  S
C3840      C3841   1.404   1_545  A
C3840      F3845   1.358       .  S
C3841      C3842   1.404       .  A
C3842      F3843   1.358       .  S
C3847      C3848   1.408       .  A
C3847      C3852   1.399       .  A
C3847      F3854   1.358       .  S
C3848      C3849   1.408   1_455  A
C3849      C3850   1.399       .  A
C3849      F3856   1.358       .  S
C3850      C3851   1.408   1_655  A
C3850      F3855   1.358       .  S
C3851      C3852   1.408       .  A
C3852      F3853   1.358       .  S
C3857      C3858   1.409       .  A
C3857      C3862   1.399       .  A
C3857      F3864   1.358       .  S
C3858      C3859   1.410       .  A
C3859      C3860   1.399       .  A
C3859      F3866   1.358       .  S
C3860      C3861   1.409       .  A
C3860      F3865   1.358       .  S
C3861      C3862   1.410       .  A
C3862      F3863   1.358       .  S
C3867      C3868   1.404       .  A
C3867      C3872   1.399       .  A
C3867      F3874   1.358       .  S
C3868      C3869   1.404       .  A
C3869      C3870   1.399       .  A
C3869      F3876   1.358       .  S
C3870      C3871   1.404       .  A
C3870      F3875   1.358       .  S
C3871      C3872   1.404       .  A
C3872      F3873   1.358       .  S
C3877      C3878   1.406       .  A
C3877      C3882   1.399       .  A
C3877      F3884   1.358       .  S
C3878      C3879   1.407       .  A
C3879      C3880   1.399       .  A
C3879      F3886   1.358       .  S
C3880      C3881   1.406       .  A
C3880      F3885   1.358       .  S
C3881      C3882   1.407       .  A
C3882      F3883   1.358       .  S
C3887      C3888   1.404       .  A
C3887      C3892   1.400       .  A
C3887      F3894   1.358       .  S
C3888      C3889   1.404       .  A
C3889      C3890   1.400       .  A
C3889      F3896   1.358       .  S
C3890      C3891   1.404       .  A
C3890      F3895   1.358       .  S
C3891      C3892   1.404       .  A
C3892      F3893   1.358       .  S
C3897      C3898   1.405       .  A
C3897      C3902   1.400       .  A
C3897      F3904   1.358       .  S
C3898      C3899   1.405       .  A
C3899      C3900   1.400       .  A
C3899      F3906   1.358       .  S
C3900      C3901   1.404       .  A
C3900      F3905   1.358       .  S
C3901      C3902   1.404       .  A
C3902      F3903   1.358       .  S
C3907      C3908   1.404       .  A
C3907      C3912   1.399       .  A
C3907      F3914   1.358       .  S
C3908      C3909   1.404       .  A
C3909      C3910   1.399       .  A
C3909      F3916   1.358       .  S
C3910      C3911   1.404       .  A
C3910      F3915   1.358       .  S
C3911      C3912   1.404       .  A
C3912      F3913   1.358       .  S
C3917      C3918   1.409       .  A
C3917      C3922   1.399       .  A
C3917      F3924   1.358       .  S
C3918      C3919   1.409       .  A
C3919      C3920   1.399       .  A
C3919      F3926   1.358       .  S
C3920      C3921   1.409       .  A
C3920      F3925   1.358       .  S
C3921      C3922   1.409       .  A
C3922      F3923   1.358       .  S
C3927      C3928   1.407       .  A
C3927      C3932   1.399       .  A
C3927      F3934   1.358       .  S
C3928      C3929   1.407       .  A
C3929      C3930   1.399       .  A
C3929      F3936   1.358       .  S
C3930      C3931   1.407       .  A
C3930      F3935   1.358       .  S
C3931      C3932   1.407       .  A
C3932      F3933   1.358       .  S
