geometry optimzed in LAMMPS
_audit_creation_date              2020-11-30 
_audit_creation_method            'lammps2cif' 
_symmetry_space_group_name_H-M    'P1' 
_symmetry_Int_Tables_number       1 
_symmetry_cell_setting            triclinic 
loop_ 
_symmetry_equiv_pos_as_xyz 
  x,y,z 
_cell_length_a                    28.65980512 
_cell_length_b                    46.430282454431875 
_cell_length_c                    25.221543626032698 
_cell_angle_alpha                 90.27611933201725 
_cell_angle_beta                  89.65938180131211 
_cell_angle_gamma                 90.29946207256204 
loop_ 
_atom_site_label 
_atom_site_type_symbol 
_atom_site_fract_x 
_atom_site_fract_y 
_atom_site_fract_z 
_atom_site_charge 
O1          O  0.12818112  0.91322546  0.72549298    -0.85100
O2          O  0.20495404  0.94713356  0.70648257    -0.82100
C3          C  0.19339615  0.97220482  0.72098540     0.98400
O4          O  0.18335927  0.97736108  0.76862365    -0.82200
O5          O  0.15598939  0.96749262  0.87235110    -0.84800
C6          C  0.11427596  0.95790514  0.87376217     1.02900
O7          O  0.10439303  0.93347526  0.85541609    -0.77600
O8          O  0.10727618  0.88621618  0.79268404    -0.77800
C9          C  0.09739982  0.89923797  0.75010619     1.02800
O10         O  0.18726941  0.86661883  0.76035603    -0.85100
O11         O  0.26110295  0.90417928  0.75349517    -0.82200
C12         C  0.28728349  0.92507432  0.76514050     0.98400
O13         O  0.27114519  0.94812110  0.78547281    -0.82200
O14         O  0.24291593  0.93639794  0.88609629    -0.84800
C15         C  0.21981990  0.92785378  0.92533045     1.02900
O16         O  0.18077048  0.91543668  0.91839718    -0.77600
O17         O  0.19088097  0.86801195  0.84715991    -0.77800
C18         C  0.19392005  0.85401027  0.80422431     1.02800
Cr19       Cr  0.19448187  0.90868768  0.74122703     1.93700
Cr20       Cr  0.21126596  0.95485918  0.82660392     1.93200
Cr21       Cr  0.14917675  0.90202836  0.85028596     1.39100
O22         O  0.18527627  0.92197883  0.80625216    -1.22900
O23         O  0.11001978  0.61767905  0.79667562    -0.85100
O24         O  0.10886063  0.57143987  0.86016821    -0.82100
C25         C  0.11951425  0.54751699  0.87925418     0.98400
O26         O  0.16176819  0.53915233  0.88022919    -0.82200
O27         O  0.19177456  0.52827836  0.77792848    -0.84800
C28         C  0.20042195  0.53331015  0.72995135     1.02900
O29         O  0.21176278  0.55838400  0.71509505    -0.77600
O30         O  0.13357692  0.59053031  0.73062642    -0.77800
C31         C  0.10160461  0.60395704  0.75413645     1.02800
O32         O  0.19159855  0.63880592  0.85300676    -0.85100
O33         O  0.18260598  0.59258570  0.92482832    -0.82200
C34         C  0.22284133  0.58236143  0.93284164     0.98400
O35         O  0.24673377  0.57333346  0.89455121    -0.82200
O36         O  0.27756353  0.56042944  0.79562206    -0.84800
C37         C  0.29247743  0.58378804  0.77539214     1.02900
O38         O  0.26500755  0.60360264  0.76270352    -0.77600
O39         O  0.18955603  0.63929246  0.76617673    -0.77800
C40         C  0.19497514  0.65244915  0.80999733     1.02800
Cr41       Cr  0.15161586  0.60391343  0.85572141     1.93700
Cr42       Cr  0.21726433  0.55265550  0.83550781     1.93200
Cr43       Cr  0.19918878  0.59707305  0.74835102     1.39100
O44         O  0.18952526  0.58435836  0.81331687    -1.22900
O45         O  0.60713720  0.88897474  0.62547247    -0.85100
O46         O  0.60653370  0.93646405  0.56362180    -0.82100
C47         C  0.61790739  0.96056705  0.54505133     0.98400
O48         O  0.66040463  0.96892990  0.54519421    -0.82200
O49         O  0.68983250  0.97945048  0.64861431    -0.84800
C50         C  0.69754700  0.97395002  0.69660086     1.02900
O51         O  0.70660554  0.94852713  0.71097103    -0.77600
O52         O  0.62853633  0.91606160  0.69242011    -0.77800
C53         C  0.59744199  0.90237656  0.66794966     1.02800
O54         O  0.68929977  0.86909879  0.56969257    -0.85100
O55         O  0.68137659  0.91607111  0.49932523    -0.82200
C56         C  0.72199124  0.92622587  0.49252661     0.98400
O57         O  0.74516790  0.93457812  0.53162845    -0.82200
O58         O  0.77446624  0.94717963  0.63067400    -0.84800
C59         C  0.78894260  0.92391041  0.65110629     1.02900
O60         O  0.76123251  0.90396858  0.66368389    -0.77600
O61         O  0.68563955  0.86811872  0.65655964    -0.77800
C62         C  0.69190769  0.85525026  0.61251616     1.02800
Cr63       Cr  0.64939215  0.90392424  0.56767356     1.93700
Cr64       Cr  0.71511831  0.95516384  0.59041329     1.93200
Cr65       Cr  0.69474025  0.91008907  0.67620507     1.39100
O66         O  0.68656765  0.92328970  0.61142402    -1.22900
O67         O  0.63440035  0.59344876  0.69685018    -0.85100
O68         O  0.71383163  0.56235556  0.71280100    -0.82100
C69         C  0.70330522  0.53673598  0.70028131     0.98400
O70         O  0.69268603  0.53044815  0.65329620    -0.82200
O71         O  0.66107756  0.53805666  0.55025985    -0.84800
C72         C  0.61875505  0.54637820  0.55128639     1.02900
O73         O  0.60814701  0.57058740  0.56971068    -0.77600
O74         O  0.60941959  0.61857486  0.62949223    -0.77800
C75         C  0.60189377  0.60606074  0.67337543     1.02800
O76         O  0.68870633  0.64140568  0.65584319    -0.85100
O77         O  0.76537980  0.60643926  0.66005657    -0.82200
C78         C  0.79268819  0.58612943  0.64882508     0.98400
O79         O  0.77759264  0.56233181  0.63028535    -0.82200
O80         O  0.74543600  0.57196949  0.53131288    -0.84800
C81         C  0.72130151  0.57991451  0.49293545     1.02900
O82         O  0.68110137  0.59044298  0.50097130    -0.77600
O83         O  0.68974394  0.63879227  0.56905594    -0.77800
C84         C  0.69314871  0.65352253  0.61105169     1.02800
Cr85       Cr  0.69967775  0.59991831  0.67671450     1.93700
Cr86       Cr  0.71693970  0.55308460  0.59274301     1.93200
Cr87       Cr  0.65052718  0.60345422  0.57024305     1.39100
O88         O  0.68930434  0.58534046  0.61305724    -1.22900
O89         O  0.85626976  0.41365544  0.19279996    -0.85100
O90         O  0.77906404  0.44635584  0.21325703    -0.82100
C91         C  0.78993559  0.47157313  0.19890776     0.98400
O92         O  0.79865951  0.47690315  0.15108154    -0.82200
O93         O  0.82567139  0.46700843  0.04730880    -0.84800
C94         C  0.86756877  0.45797321  0.04608200     1.02900
O95         O  0.87788713  0.43367942  0.06374622    -0.77600
O96         O  0.87716158  0.38666028  0.12527458    -0.77800
C97         C  0.88705006  0.39979431  0.16808401     1.02800
O98         O  0.79803259  0.36612400  0.15815874    -0.85100
O99         O  0.72339094  0.40229668  0.16632388    -0.82200
C100        C  0.69635503  0.42259166  0.15493704     0.98400
O101        O  0.71164532  0.44595734  0.13507521    -0.82200
O102        O  0.73922743  0.43417008  0.03468855    -0.84800
C103        C  0.76196943  0.42615385  0.99481518     1.02900
O104        O  0.80164567  0.41468616  0.00078993    -0.77600
O105        O  0.79302922  0.36744149  0.07147087    -0.77800
C106        C  0.79089711  0.35347534  0.11423382     1.02800
Cr107      Cr  0.78995609  0.40802141  0.17796073     1.93700
Cr108      Cr  0.77096631  0.45362340  0.09341953     1.93200
Cr109      Cr  0.83411832  0.40179008  0.06841937     1.39100
O110        O  0.79813098  0.42130997  0.11313182    -1.22900
O111        O  0.87629532  0.11885095  0.12820960    -0.85100
O112        O  0.87606784  0.07219019  0.06449531    -0.82100
C113        C  0.86525295  0.04774569  0.04702184     0.98400
O114        O  0.82312275  0.03884559  0.04846436    -0.82200
O115        O  0.79615601  0.02896742  0.15204515    -0.84800
C116        C  0.78706152  0.03409027  0.19991242     1.02900
O117        O  0.77708267  0.05926731  0.21515646    -0.77600
O118        O  0.85524620  0.09178369  0.19533297    -0.77800
C119        C  0.88615954  0.10563175  0.17064587     1.02800
O120        O  0.79245884  0.13865830  0.07593830    -0.85100
O121        O  0.79936485  0.09180446  0.00299396    -0.82200
C122        C  0.75948913  0.08024032  0.99717711     0.98400
O123        O  0.73721708  0.07192958  0.03713817    -0.82200
O124        O  0.70975299  0.05994699  0.13719327    -0.84800
C125        C  0.69484427  0.08312252  0.15824689     1.02900
O126        O  0.72215391  0.10341104  0.17032137    -0.77600
O127        O  0.79787299  0.13957155  0.16264508    -0.77800
C128        C  0.79081636  0.15243576  0.11917127     1.02800
Cr129      Cr  0.83271075  0.10417481  0.07105936     1.93700
Cr130      Cr  0.76880632  0.05233057  0.09511845     1.93200
Cr131      Cr  0.78888780  0.09761514  0.18103241     1.39100
O132        O  0.79657434  0.08455832  0.11558736    -1.22900
O133        O  0.37607067  0.39165004  0.29468211    -0.85100
O134        O  0.37718846  0.43867100  0.35706675    -0.82100
C135        C  0.36667587  0.46289533  0.37552468     0.98400
O136        O  0.32443268  0.47140645  0.37628455    -0.82200
O137        O  0.29386429  0.48034334  0.27382348    -0.84800
C138        C  0.28345041  0.47494378  0.22650176     1.02900
O139        O  0.27303688  0.44956024  0.21238819    -0.77600
O140        O  0.35293036  0.41830941  0.22845834    -0.77800
C141        C  0.38471429  0.40491622  0.25184558     1.02800
O142        O  0.29466323  0.37105944  0.35231031    -0.85100
O143        O  0.30315142  0.41802427  0.42337061    -0.82200
C144        C  0.26305415  0.42864134  0.43155484     0.98400
O145        O  0.23953372  0.43757198  0.39342150    -0.82200
O146        O  0.20835181  0.44782156  0.29445820    -0.84800
C147        C  0.19369052  0.42400824  0.27529018     1.02900
O148        O  0.22141312  0.40438334  0.26173919    -0.77600
O149        O  0.29760930  0.36963495  0.26546122    -0.77800
C150        C  0.29158582  0.35698963  0.30956059     1.02800
Cr151      Cr  0.33441801  0.40605805  0.35392932     1.93700
Cr152      Cr  0.26876835  0.45694388  0.33287114     1.93200
Cr153      Cr  0.28717416  0.41145576  0.24666934     1.39100
O154        O  0.29648195  0.42496673  0.31140078    -1.22900
O155        O  0.35282293  0.09702591  0.22793274    -0.85100
O156        O  0.27368839  0.06466701  0.21008162    -0.82100
C157        C  0.28456831  0.03910531  0.22149922     0.98400
O158        O  0.29584590  0.03275051  0.26816571    -0.82200
O159        O  0.32741107  0.04066773  0.37200152    -0.84800
C160        C  0.36938361  0.04994014  0.37295866     1.02900
O161        O  0.37944458  0.07459365  0.35601611    -0.77600
O162        O  0.37565586  0.12268537  0.29627062    -0.77800
C163        C  0.38457623  0.11000644  0.25277466     1.02800
O164        O  0.29615684  0.14379541  0.26916407    -0.85100
O165        O  0.22090115  0.10745479  0.26405533    -0.82200
C166        C  0.19428767  0.08672605  0.27548850     0.98400
O167        O  0.21020586  0.06304240  0.29279713    -0.82200
O168        O  0.24170006  0.07247496  0.39217625    -0.84800
C169        C  0.26513695  0.08137594  0.43068084     1.02900
O170        O  0.30475008  0.09291863  0.42306488    -0.77600
O171        O  0.29436791  0.14107521  0.35585093    -0.77800
C172        C  0.29044864  0.15572764  0.31406428     1.02800
Cr173      Cr  0.28691880  0.10221008  0.24746766     1.93700
Cr174      Cr  0.27108698  0.05468929  0.32987917     1.93200
Cr175      Cr  0.33519167  0.10656667  0.35467151     1.39100
O176        O  0.29755612  0.08762239  0.31086875    -1.24500
C177        C  0.28184666  0.28312407  0.33921831     0.30000
C178        C  0.28396244  0.25833202  0.37106700    -0.36300
C179        C  0.28103666  0.23170081  0.34432800     0.16000
C180        C  0.27632761  0.22968129  0.29002055     0.21800
C181        C  0.27380914  0.25441193  0.25834907    -0.34400
C182        C  0.27689819  0.28095710  0.28495927     0.15900
O183        O  0.28638111  0.31013635  0.35540831    -0.26500
C184        C  0.28432404  0.32545711  0.31089213     0.05700
C185        C  0.27840334  0.30837207  0.26591991    -0.31300
O186        O  0.27741846  0.20281025  0.27276595    -0.23200
C187        C  0.28266075  0.18719518  0.31646605    -0.03200
C188        C  0.28489185  0.20405086  0.36232846    -0.17600
H189        H  0.28886300  0.25970118  0.41349154     0.20400
H190        H  0.27107193  0.25303519  0.21555643     0.18800
H191        H  0.27690301  0.31515066  0.22489747     0.18700
H192        H  0.29080105  0.19705527  0.40255704     0.14600
C193        C  0.99213956  0.09097674  0.23175602     0.30000
C194        C  0.02334803  0.07467759  0.26182156    -0.36300
C195        C  0.07002863  0.08369821  0.26021565     0.16000
C196        C  0.08458938  0.10744678  0.23168273     0.21800
C197        C  0.05346380  0.12366340  0.20155403    -0.34400
C198        C  0.00701212  0.11435507  0.20241398     0.15900
O199        O  0.94743470  0.08556757  0.22551199    -0.26500
C200        C  0.93365419  0.10552993  0.19141994     0.05700
C201        C  0.96919962  0.12404751  0.17552916    -0.31300
O202        O  0.12980699  0.11170029  0.23456067    -0.23200
C203        C  0.14461887  0.09030269  0.26482451    -0.03200
C204        C  0.10905004  0.07209682  0.28204197    -0.17600
H205        H  0.01217250  0.05584491  0.28382812     0.20400
H206        H  0.06493801  0.14185085  0.17799790     0.18800
H207        H  0.96760323  0.14157538  0.14744966     0.18700
H208        H  0.11169189  0.05298189  0.30627225     0.14600
C209        C  0.49153431  0.09274325  0.19498155     0.30000
C210        C  0.52282561  0.07570428  0.16568800    -0.36300
C211        C  0.57022896  0.08235403  0.17208338     0.16000
C212        C  0.58550922  0.10445350  0.20453579     0.21800
C213        C  0.55432378  0.12129218  0.23409200    -0.34400
C214        C  0.50708053  0.11448943  0.22806161     0.15900
O215        O  0.44593795  0.08938306  0.19723119    -0.26500
C216        C  0.43231994  0.10912705  0.23236321     0.05700
C217        C  0.46881132  0.12541873  0.25282720    -0.31300
O218        O  0.63111784  0.10733010  0.20395872    -0.23200
C219        C  0.64539876  0.08668494  0.17109620    -0.03200
C220        C  0.60914206  0.07025533  0.15023697    -0.17600
H221        H  0.51109311  0.05828618  0.14038248     0.20400
H222        H  0.56611279  0.13828493  0.26030659     0.18800
H223        H  0.46750530  0.14191697  0.28322676     0.18700
H224        H  0.61116589  0.05250322  0.12238097     0.14600
C225        C  0.50302800  0.39733881  0.22232382     0.30000
C226        C  0.54825190  0.38683913  0.22887632    -0.36300
C227        C  0.58334739  0.40140955  0.20091103     0.16000
C228        C  0.57487946  0.42484390  0.16892613     0.21800
C229        C  0.52942858  0.43505532  0.16161113    -0.34400
C230        C  0.49416182  0.42029822  0.18930691     0.15900
O231        O  0.46547124  0.38820346  0.24755174    -0.26500
C232        C  0.43200922  0.40527025  0.22989968     0.05700
C233        C  0.44767779  0.42550917  0.19330120    -0.31300
O234        O  0.61346949  0.43581380  0.14833593    -0.23200
C235        C  0.64675291  0.41890475  0.16713262    -0.03200
C236        C  0.63001208  0.39714825  0.19986316    -0.17600
H237        H  0.55569174  0.36901714  0.25486878     0.20400
H238        H  0.52219154  0.45348988  0.13701792     0.18800
H239        H  0.42813063  0.44257820  0.17479042     0.18700
H240        H  0.64957386  0.38084464  0.22054017     0.14600
C241        C  0.99197593  0.41492304  0.23153464     0.30000
C242        C  0.02237170  0.43158300  0.26256803    -0.36300
C243        C  0.06925233  0.42336502  0.26134595     0.16000
C244        C  0.08480542  0.39996860  0.23238494     0.21800
C245        C  0.05436966  0.38322360  0.20148891    -0.34400
C246        C  0.00763879  0.39183482  0.20180662     0.15900
O247        O  0.94740819  0.41993853  0.22443930    -0.26500
C248        C  0.93434609  0.40003095  0.18941991     0.05700
C249        C  0.97032289  0.38189601  0.17368203    -0.31300
O250        O  0.13027708  0.39695879  0.23487759    -0.23200
C251        C  0.14413446  0.41884522  0.26527411    -0.03200
C252        C  0.10770672  0.43601036  0.28315372    -0.17600
H253        H  0.01053054  0.45025508  0.28460283     0.20400
H254        H  0.06660311  0.36540183  0.17742408     0.18800
H255        H  0.96935265  0.36452896  0.14492108     0.18700
H256        H  0.10947095  0.45531092  0.30731883     0.14600
C257        C  0.78180807  0.22627671  0.09132507     0.30000
C258        C  0.78262204  0.25100421  0.05941518    -0.36300
C259        C  0.78143482  0.27754641  0.08632790     0.16000
C260        C  0.77974028  0.27962912  0.14089880     0.21800
C261        C  0.77874837  0.25491385  0.17280660    -0.34400
C262        C  0.77988379  0.22838038  0.14589102     0.15900
O263        O  0.78456479  0.19933862  0.07456724    -0.26500
C264        C  0.78433518  0.18393490  0.11896721     0.05700
C265        C  0.78147228  0.20090234  0.16456307    -0.31300
O266        O  0.78139030  0.30656084  0.15779207    -0.23200
C267        C  0.78387600  0.32200180  0.11348986    -0.03200
C268        C  0.78391203  0.30507080  0.06776884    -0.17600
H269        H  0.78496891  0.24964936  0.01667536     0.20400
H270        H  0.77818576  0.25628266  0.21565208     0.18800
H271        H  0.78192582  0.19400950  0.20550574     0.18700
H272        H  0.78725341  0.31198940  0.02702489     0.14600
C273        C  0.69625037  0.49163607  0.81125964     0.30000
C274        C  0.68068422  0.48291045  0.86150259    -0.36300
C275        C  0.70715548  0.46159851  0.88641518     0.16000
C276        C  0.74682441  0.44984188  0.86406111     0.21800
C277        C  0.76169970  0.45801926  0.81298451    -0.34400
C278        C  0.73479581  0.47913979  0.78765317     0.15900
O279        O  0.67920313  0.51307623  0.78321994    -0.26500
C280        C  0.70643981  0.51392796  0.74038457     0.05700
C281        C  0.74153293  0.49330369  0.74087929    -0.31300
O282        O  0.77000481  0.43353806  0.89784546    -0.23200
C283        C  0.74434761  0.43453532  0.94210384    -0.03200
C284        C  0.70458231  0.45140111  0.93670242    -0.17600
H285        H  0.65125079  0.49306677  0.88100496     0.20400
H286        H  0.79339020  0.44960742  0.79532142     0.18800
H287        H  0.76957902  0.49040023  0.71242367     0.18700
H288        H  0.68006745  0.45783328  0.96732497     0.14600
C289        C  0.76093096  0.52894351  0.28305457     0.30000
C290        C  0.73061749  0.54974704  0.30483153    -0.36300
C291        C  0.74034817  0.55882191  0.35695886     0.16000
C292        C  0.77796071  0.54854970  0.38484314     0.21800
C293        C  0.80837272  0.52801485  0.36301761    -0.34400
C294        C  0.79796462  0.51845370  0.31166501     0.15900
O295        O  0.75507038  0.51491653  0.23787349    -0.26500
C296        C  0.78858362  0.49513923  0.23787664     0.05700
C297        C  0.81619642  0.49621098  0.28290114    -0.31300
O298        O  0.77761149  0.55694366  0.43468641    -0.23200
C299        C  0.73919756  0.57273929  0.43957145    -0.03200
C300        C  0.71457137  0.57485987  0.39223144    -0.17600
H301        H  0.70000335  0.55685693  0.28403256     0.20400
H302        H  0.83612492  0.51870682  0.38583509     0.18800
H303        H  0.84368261  0.48166436  0.29412502     0.18700
H304        H  0.68065112  0.58431906  0.38608591     0.14600
C305        C  0.47334008  0.48612215  0.42664997     0.30000
C306        C  0.52115665  0.48331664  0.43760320    -0.36300
C307        C  0.53942838  0.50252491  0.47527423     0.16000
C308        C  0.51224948  0.52305284  0.50003599     0.21800
C309        C  0.46446445  0.52587640  0.48903515    -0.34400
C310        C  0.44619374  0.50667513  0.45138532     0.15900
O311        O  0.44888106  0.46943983  0.39495817    -0.26500
C312        C  0.40543063  0.47932195  0.39909128     0.05700
C313        C  0.40157197  0.50272391  0.43345826    -0.31300
O314        O  0.53662931  0.53970352  0.53184337    -0.23200
C315        C  0.58008550  0.52984656  0.52778765    -0.03200
C316        C  0.58403419  0.50649140  0.49329271    -0.17600
H317        H  0.54249592  0.46720378  0.41824310     0.20400
H318        H  0.44311978  0.54198512  0.50840868     0.18800
H319        H  0.37031150  0.51393036  0.44580971     0.18700
H320        H  0.61533256  0.49533477  0.48092254     0.14600
C321        C  0.47556064  0.02495285  0.42333890     0.30000
C322        C  0.52392574  0.02598417  0.43281379    -0.36300
C323        C  0.54114401  0.00598728  0.46937377     0.16000
C324        C  0.51247652  0.98636180  0.49462906     0.21800
C325        C  0.46418446  0.98535739  0.48520385    -0.34400
C326        C  0.44701549  0.00524878  0.44855328     0.15900
O327        O  0.45202262  0.04224556  0.39211647    -0.26500
C328        C  0.40780562  0.03343603  0.39681893     0.05700
C329        C  0.40258868  0.01036292  0.43141185    -0.31300
O330        O  0.53581229  0.96892063  0.52564050    -0.23200
C331        C  0.58012506  0.97739771  0.52072172    -0.03200
C332        C  0.58563278  0.00053802  0.48624464    -0.17600
H333        H  0.54654987  0.04135764  0.41301739     0.20400
H334        H  0.44156527  0.96993910  0.50492876     0.18800
H335        H  0.37060104  0.99984406  0.44398158     0.18700
H336        H  0.61773716  0.01089218  0.47365740     0.14600
C337        C  0.70115711  0.72803694  0.63499721     0.30000
C338        C  0.70052195  0.75309272  0.66628167    -0.36300
C339        C  0.70130729  0.77932736  0.63897670     0.16000
C340        C  0.70254350  0.78098521  0.58437664     0.21800
C341        C  0.70338824  0.75581248  0.55289941    -0.34400
C342        C  0.70262396  0.72944422  0.58036462     0.15900
O343        O  0.69879761  0.70135205  0.65261777    -0.26500
C344        C  0.69887256  0.68519230  0.60888524     0.05700
C345        C  0.70123249  0.70153105  0.56262132    -0.31300
O346        O  0.70080006  0.80791770  0.56735648    -0.23200
C347        C  0.69858971  0.82364183  0.61175857    -0.03200
C348        C  0.69892162  0.80689149  0.65734113    -0.17600
H349        H  0.69861740  0.75218866  0.70921539     0.20400
H350        H  0.70366339  0.75671257  0.51000195     0.18800
H351        H  0.70064536  0.69397688  0.52197095     0.18700
H352        H  0.69608931  0.81399799  0.69824626     0.14600
C353        C  0.73970136  0.94693396  0.36092537     0.30000
C354        C  0.72522320  0.95548103  0.31023381    -0.36300
C355        C  0.75391356  0.97578154  0.28444008     0.16000
C356        C  0.79367504  0.98716298  0.30726450     0.21800
C357        C  0.80888709  0.97793423  0.35694312    -0.34400
C358        C  0.78067728  0.95741836  0.38227742     0.15900
O359        O  0.71479406  0.93196495  0.39564297    -0.26500
C360        C  0.74067401  0.93258575  0.43936367     0.05700
C361        C  0.78233743  0.94769293  0.43274290    -0.31300
O362        O  0.81183539  0.00855419  0.27965452    -0.23200
C363        C  0.78414402  0.01038172  0.23780387    -0.03200
C364        C  0.74760170  0.99054539  0.23849065    -0.17600
H365        H  0.69251254  0.94824753  0.29354568     0.20400
H366        H  0.83906745  0.98737945  0.37595581     0.18800
H367        H  0.80739356  0.95373780  0.46280863     0.18700
H368        H  0.71870828  0.98883830  0.21121763     0.14600
C369        C  0.68992403  0.01709535  0.81062440     0.30000
C370        C  0.67766012  0.02298339  0.86336792    -0.36300
C371        C  0.70278570  0.04505719  0.88854191     0.16000
C372        C  0.73844493  0.06017886  0.86420754     0.21800
C373        C  0.74959995  0.05499311  0.81044113    -0.34400
C374        C  0.72378831  0.03306375  0.78476153     0.15900
O375        O  0.67480309  0.99504366  0.78220253    -0.26500
C376        C  0.69811299  0.99719388  0.73666972     0.05700
C377        C  0.72888404  0.02057724  0.73577096    -0.31300
O378        O  0.76208185  0.07655756  0.89821888    -0.23200
C379        C  0.74039626  0.07221738  0.94454962    -0.03200
C380        C  0.70296897  0.05310829  0.94024260    -0.17600
H381        H  0.65205211  0.01006032  0.88441107     0.20400
H382        H  0.77821667  0.06607475  0.79087024     0.18800
H383        H  0.75422104  0.02597845  0.70532446     0.18700
H384        H  0.68196565  0.04402331  0.97192168     0.14600
C385        C  0.01328981  0.52335933  0.93051047     0.30000
C386        C  0.96566333  0.52582091  0.94295023    -0.36300
C387        C  0.94687623  0.50398489  0.97473508     0.16000
C388        C  0.97338072  0.48133877  0.99262707     0.21800
C389        C  0.02098742  0.47884300  0.98009929    -0.34400
C390        C  0.03981591  0.50073411  0.94845728     0.15900
O391        O  0.03800454  0.54185718  0.90285426    -0.26500
C392        C  0.08096032  0.53109532  0.90291268     0.05700
C393        C  0.08436519  0.50539255  0.93060664    -0.31300
O394        O  0.94879692  0.46307223  0.02094001    -0.23200
C395        C  0.90598937  0.47405876  0.02147279    -0.03200
C396        C  0.90250806  0.49962098  0.99338260    -0.17600
H397        H  0.94487327  0.54361021  0.92906722     0.20400
H398        H  0.04183511  0.46113057  0.99421990     0.18800
H399        H  0.11513327  0.49263364  0.93787512     0.18700
H400        H  0.87182785  0.51252565  0.98654299     0.14600
C401        C  0.98326293  0.61004395  0.72482030     0.30000
C402        C  0.93760341  0.61986592  0.73146295    -0.36300
C403        C  0.90395437  0.60646326  0.69978038     0.16000
C404        C  0.91405541  0.58453551  0.66439975     0.21800
C405        C  0.96000019  0.57493642  0.65717850    -0.34400
C406        C  0.99389012  0.58865095  0.68850676     0.15900
O407        O  0.01981156  0.61879940  0.75198958    -0.26500
C408        C  0.05445439  0.60309299  0.73236909     0.05700
C409        C  0.04048813  0.58402685  0.69267288    -0.31300
O410        O  0.87636724  0.57420627  0.64094786    -0.23200
C411        C  0.84211266  0.59012190  0.66126449    -0.03200
C412        C  0.85733086  0.61054014  0.69775737    -0.17600
H413        H  0.92879010  0.63651713  0.75994806     0.20400
H414        H  0.96861727  0.55773058  0.62976096     0.18800
H415        H  0.06134840  0.56828182  0.67154893     0.18700
H416        H  0.83668701  0.62563081  0.72071605     0.14600
C417        C  0.41427204  0.58418996  0.76216734     0.30000
C418        C  0.46053651  0.57552013  0.77006821    -0.36300
C419        C  0.49450188  0.59026044  0.74018190     0.16000
C420        C  0.48368174  0.61177012  0.70471049     0.21800
C421        C  0.43774303  0.62077282  0.69766007    -0.34400
C422        C  0.40401607  0.60625609  0.72768940     0.15900
O423        O  0.37646016  0.57281089  0.78404994    -0.26500
C424        C  0.34199318  0.58816247  0.76344386     0.05700
C425        C  0.35719763  0.60923574  0.72842183    -0.31300
O426        O  0.52019995  0.62096430  0.67766492    -0.23200
C427        C  0.55503739  0.60543479  0.69653644    -0.03200
C428        C  0.54126189  0.58613761  0.73579230    -0.17600
H429        H  0.46931005  0.55813880  0.79652023     0.20400
H430        H  0.42877119  0.63739243  0.66968362     0.18800
H431        H  0.33650716  0.62422400  0.70587891     0.18700
H432        H  0.56220615  0.57023053  0.75575868     0.14600
C433        C  0.23655073  0.56186145  0.06497004     0.30000
C434        C  0.21984988  0.55175959  0.11404564    -0.36300
C435        C  0.24899969  0.53253477  0.14104674     0.16000
C436        C  0.29168452  0.52382733  0.12119629     0.21800
C437        C  0.30905486  0.53469126  0.07313175    -0.34400
C438        C  0.27994295  0.55386631  0.04618222     0.15900
O439        O  0.21190396  0.57572235  0.02903558    -0.26500
C440        C  0.24005556  0.57682761  0.98685470     0.05700
C441        C  0.28309844  0.56396595  0.99581512    -0.31300
O442        O  0.31043274  0.50297048  0.14935195    -0.23200
C443        C  0.27974725  0.49862661  0.18830023    -0.03200
C444        C  0.24097889  0.51643805  0.18529397    -0.17600
H445        H  0.18520653  0.55685591  0.12832667     0.20400
H446        H  0.34152886  0.52717129  0.05611354     0.18800
H447        H  0.31037880  0.55945752  0.96714265     0.18700
H448        H  0.21004318  0.51614116  0.21008133     0.14600
C449        C  0.22416622  0.47532888  0.64474866     0.30000
C450        C  0.25291123  0.45399343  0.62191822    -0.36300
C451        C  0.24300127  0.44624380  0.56908989     0.16000
C452        C  0.20645764  0.45813708  0.54155219     0.21800
C453        C  0.17738073  0.47902036  0.56454136    -0.34400
C454        C  0.18815074  0.48734887  0.61649911     0.15900
O455        O  0.23132158  0.48877701  0.69034550    -0.26500
C456        C  0.19969363  0.50972436  0.69088970     0.05700
C457        C  0.17198250  0.50990778  0.64593968    -0.31300
O458        O  0.20707634  0.45113414  0.49097843    -0.23200
C459        C  0.24462564  0.43464542  0.48523108    -0.03200
C460        C  0.26830246  0.43060194  0.53276093    -0.17600
H461        H  0.28296550  0.44573397  0.64236697     0.20400
H462        H  0.15072362  0.48968571  0.54201605     0.18800
H463        H  0.14604095  0.52557633  0.63501820     0.18700
H464        H  0.30161996  0.42028694  0.53853911     0.14600
C465        C  0.49023902  0.91927406  0.72491823     0.30000
C466        C  0.45847913  0.93640767  0.75327456    -0.36300
C467        C  0.41148895  0.92836164  0.74898831     0.16000
C468        C  0.39711088  0.90489005  0.71937684     0.21800
C469        C  0.42875263  0.88792981  0.69076604    -0.34400
C470        C  0.47555688  0.89614106  0.69460769     0.15900
O471        O  0.53549690  0.92361033  0.72129482    -0.26500
C472        C  0.54972661  0.90313416  0.68800973     0.05700
C473        C  0.51404172  0.88536664  0.67006904    -0.31300
O474        O  0.35178634  0.90096348  0.72133895    -0.23200
C475        C  0.33675886  0.92226258  0.75224978    -0.03200
C476        C  0.37222630  0.94020336  0.77047451    -0.17600
H477        H  0.46955091  0.95487618  0.77635102     0.20400
H478        H  0.41758103  0.86983883  0.66677782     0.18800
H479        H  0.51598541  0.86784256  0.64173262     0.18700
H480        H  0.36950097  0.95883087  0.79622902     0.14600
C481        C  0.89780540  0.90144345  0.69521999     0.30000
C482        C  0.92867726  0.88433154  0.72407195    -0.36300
C483        C  0.97573211  0.89236689  0.72131975     0.16000
C484        C  0.99124704  0.91542041  0.69151421     0.21800
C485        C  0.96034635  0.93260114  0.66285912    -0.34400
C486        C  0.91321605  0.92482327  0.66622874     0.15900
O487        O  0.85230887  0.89815851  0.69318837    -0.26500
C488        C  0.83831683  0.91979540  0.66291462     0.05700
C489        C  0.87462222  0.93722019  0.64506542    -0.31300
O490        O  0.03633398  0.91981755  0.69619013    -0.23200
C491        C  0.04984880  0.89954445  0.72972074    -0.03200
C492        C  0.01370426  0.88175953  0.74677254    -0.17600
H493        H  0.91667391  0.86635971  0.74788272     0.20400
H494        H  0.97216832  0.95114168  0.64042918     0.18800
H495        H  0.87280064  0.95614130  0.62021511     0.18700
H496        H  0.01496840  0.86434277  0.77512788     0.14600
C497        C  0.20619498  0.72655664  0.78317152     0.30000
C498        C  0.20721807  0.75132344  0.75137092    -0.36300
C499        C  0.20634649  0.77790632  0.77821017     0.16000
C500        C  0.20462923  0.78006606  0.83278782     0.21800
C501        C  0.20392403  0.75527213  0.86465014    -0.34400
C502        C  0.20478973  0.72866003  0.83776367     0.15900
O503        O  0.20424903  0.69958546  0.76624433    -0.26500
C504        C  0.20179114  0.68408026  0.81051164     0.05700
C505        C  0.20213812  0.70108181  0.85622157    -0.31300
O506        O  0.20157925  0.80707508  0.84943633    -0.23200
C507        C  0.20144504  0.82247451  0.80494157    -0.03200
C508        C  0.20444505  0.80538198  0.75950504    -0.17600
H509        H  0.20749331  0.74995723  0.70837798     0.20400
H510        H  0.20170665  0.75662785  0.90751106     0.18800
H511        H  0.19905901  0.69415981  0.89703283     0.18700
H512        H  0.20355823  0.81219408  0.71845021     0.14600
C513        C  0.22669615  0.02888435  0.63801603     0.30000
C514        C  0.25873001  0.04860196  0.61592178    -0.36300
C515        C  0.24773465  0.05919709  0.56542409     0.16000
C516        C  0.20765405  0.05116886  0.53906963     0.21800
C517        C  0.17540761  0.03176520  0.56137817    -0.34400
C518        C  0.18680157  0.02081420  0.61132483     0.15900
O519        O  0.23274214  0.01386230  0.68169838    -0.26500
C520        C  0.19633408  0.99594466  0.68290291     0.05700
C521        C  0.16664549  0.99916702  0.64002008    -0.31300
O522        O  0.20718333  0.06033397  0.48979884    -0.23200
C523        C  0.24738178  0.07450237  0.48405864    -0.03200
C524        C  0.27401705  0.07473898  0.53009547    -0.17600
H525        H  0.29123727  0.05384171  0.63518204     0.20400
H526        H  0.14531444  0.02424840  0.53976020     0.18800
H527        H  0.13637054  0.98633716  0.62997216     0.18700
H528        H  0.30943869  0.08239409  0.53495752     0.14600
C529        C  0.27217422  0.96320714  0.03226862     0.30000
C530        C  0.30170825  0.98434022  0.05407346    -0.36300
C531        C  0.29014865  0.99415162  0.10514411     0.16000
C532        C  0.25246591  0.98360011  0.13337506     0.21800
C533        C  0.22276132  0.96239150  0.11145415    -0.34400
C534        C  0.23406466  0.95277179  0.05988633     0.15900
O535        O  0.27383081  0.95364476  0.98303115    -0.26500
C536        C  0.23635154  0.93675182  0.97839583     0.05700
C537        C  0.21027912  0.93527393  0.02522750    -0.31300
O538        O  0.24671570  0.99711275  0.17927313    -0.23200
C539        C  0.28116488  0.01655355  0.18027542    -0.03200
C540        C  0.30894261  0.01586164  0.13495326    -0.17600
H541        H  0.33042802  0.99347570  0.03173818     0.20400
H542        H  0.19198836  0.95484909  0.13219189     0.18800
H543        H  0.17668490  0.92506362  0.03130544     0.18700
H544        H  0.33768280  0.03000797  0.12469727     0.14600
C545        C  0.97080473  0.02285890  0.99455458     0.30000
C546        C  0.01855427  0.02494910  0.98202742    -0.36300
C547        C  0.03634978  0.00331574  0.94877629     0.16000
C548        C  0.00893952  0.98114490  0.92963197     0.21800
C549        C  0.96119464  0.97898140  0.94236017    -0.34400
C550        C  0.94333566  0.00070292  0.97546074     0.15900
O551        O  0.94685768  0.04139528  0.02316079    -0.26500
C552        C  0.90339133  0.03110430  0.02270563     0.05700
C553        C  0.89896463  0.00566421  0.99371711    -0.31300
O554        O  0.03274507  0.96304523  0.89984444    -0.23200
C555        C  0.07598266  0.97372965  0.89956000    -0.03200
C556        C  0.08042783  0.99886451  0.92938700    -0.17600
H557        H  0.04010074  0.04234977  0.99673834     0.20400
H558        H  0.93957282  0.96173087  0.92727733     0.18800
H559        H  0.86767221  0.99335228  0.98573685     0.18700
H560        H  0.11157034  0.01145147  0.93680148     0.14600
loop_ 
_geom_bond_atom_site_label_1 
_geom_bond_atom_site_label_2 
_geom_bond_distance 
_geom_bond_site_symmetry_2 
_ccdc_geom_bond_type 
O1          Cr19   1.956       .  S
O1            C9   1.256       .  A
O2          Cr19   2.013       .  S
O2            C3   1.264       .  A
C3            O4   1.256       .  A
C3          C520   1.467       .  S
O4          Cr20   1.977       .  S
O5          Cr20   2.041       .  S
O5            C6   1.274       .  A
C6            O7   1.255       .  A
C6          C555   1.471       .  S
O7          Cr21   1.952       .  S
O8          Cr21   2.023       .  S
O8            C9   1.269       .  A
C9          C491   1.460       .  S
O10         Cr19   2.023       .  S
O10          C18   1.270       .  A
O11         Cr19   1.949       .  S
O11          C12   1.258       .  A
C12          O13   1.272       .  A
C12         C475   1.459       .  S
O13         Cr20   2.025       .  S
O14         Cr20   1.961       .  S
O14          C15   1.252       .  A
C15          O16   1.269       .  A
C15         C536   1.479       .  S
O16         Cr21   2.040       .  S
O17         Cr21   1.987       .  S
O17          C18   1.263       .  A
C18         C507   1.481       .  S
Cr19         O22   1.768       .  S
Cr20         O22   1.770       .  S
Cr21         O22   1.774       .  S
O23         Cr41   2.021       .  S
O23          C31   1.269       .  A
O24         Cr41   1.941       .  S
O24          C25   1.253       .  A
C25          O26   1.274       .  A
C25         C392   1.465       .  S
O26         Cr42   2.042       .  S
O27         Cr42   1.978       .  S
O27          C28   1.257       .  A
C28          O29   1.265       .  A
C28         C456   1.470       .  S
O29         Cr43   2.012       .  S
O30         Cr43   1.957       .  S
O30          C31   1.255       .  A
C31         C408   1.462       .  S
O32         Cr41   1.981       .  S
O32          C40   1.262       .  A
O33         Cr41   2.034       .  S
O33          C34   1.267       .  A
C34          O35   1.252       .  A
C34         C440   1.476       .  S
O35         Cr42   1.961       .  S
O36         Cr42   2.026       .  S
O36          C37   1.272       .  A
C37          O38   1.258       .  A
C37         C424   1.462       .  S
O38         Cr43   1.945       .  S
O39         Cr43   2.029       .  S
O39          C40   1.270       .  A
C40         C504   1.481       .  S
Cr41         O44   1.771       .  S
Cr42         O44   1.771       .  S
Cr43         O44   1.764       .  S
O45         Cr63   2.013       .  S
O45          C53   1.266       .  A
O46         Cr63   1.956       .  S
O46          C47   1.256       .  A
C47          O48   1.276       .  A
C47         C331   1.477       .  S
O48         Cr64   2.051       .  S
O49         Cr64   1.983       .  S
O49          C50   1.259       .  A
C50          O51   1.265       .  A
C50         C376   1.475       .  S
O51         Cr65   2.013       .  S
O52         Cr65   1.959       .  S
O52          C53   1.255       .  A
C53         C472   1.456       .  S
O54         Cr63   1.986       .  S
O54          C62   1.262       .  A
O55         Cr63   2.029       .  S
O55          C56   1.265       .  A
C56          O57   1.251       .  A
C56         C360   1.472       .  S
O57         Cr64   1.958       .  S
O58         Cr64   2.023       .  S
O58          C59   1.272       .  A
C59          O60   1.257       .  A
C59         C488   1.461       .  S
O60         Cr65   1.952       .  S
O61         Cr65   2.024       .  S
O61          C62   1.271       .  A
C62         C347   1.481       .  S
Cr63         O66   1.776       .  S
Cr64         O66   1.769       .  S
Cr65         O66   1.765       .  S
O67         Cr85   1.958       .  S
O67          C75   1.256       .  A
O68         Cr85   2.015       .  S
O68          C69   1.265       .  A
C69          O70   1.258       .  A
C69         C280   1.471       .  S
O70         Cr86   1.979       .  S
O71         Cr86   2.049       .  S
O71          C72   1.275       .  A
C72          O73   1.252       .  A
C72         C315   1.471       .  S
O73         Cr87   1.945       .  S
O74         Cr87   2.023       .  S
O74          C75   1.269       .  A
C75         C427   1.461       .  S
O76         Cr85   2.026       .  S
O76          C84   1.270       .  A
O77         Cr85   1.949       .  S
O77          C78   1.259       .  A
C78          O79   1.272       .  A
C78         C411   1.463       .  S
O79         Cr86   2.027       .  S
O80         Cr86   1.956       .  S
O80          C81   1.251       .  A
C81          O82   1.269       .  A
C81         C299   1.475       .  S
O82         Cr87   2.040       .  S
O83         Cr87   1.984       .  S
O83          C84   1.262       .  A
C84         C344   1.480       .  S
Cr85         O88   1.766       .  S
Cr86         O88   1.770       .  S
Cr87         O88   1.772       .  S
O89        Cr107   1.955       .  S
O89          C97   1.256       .  A
O90        Cr107   2.011       .  S
O90          C91   1.264       .  A
C91          O92   1.256       .  A
C91         C296   1.468       .  S
O92        Cr108   1.976       .  S
O93        Cr108   2.043       .  S
O93          C94   1.274       .  A
C94          O95   1.252       .  A
C94         C395   1.464       .  S
O95        Cr109   1.939       .  S
O96        Cr109   2.028       .  S
O96          C97   1.270       .  A
C97         C248   1.461       .  S
O98        Cr107   2.020       .  S
O98         C106   1.269       .  A
O99        Cr107   1.949       .  S
O99         C100   1.258       .  A
C100        O101   1.272       .  A
C100        C235   1.462       .  S
O101       Cr108   2.024       .  S
O102       Cr108   1.958       .  S
O102        C103   1.251   1_554  A
C103        O104   1.268   1_556  A
C103        C283   1.480       .  S
O104       Cr109   2.042       .  S
O105       Cr109   1.979       .  S
O105        C106   1.262       .  A
C106        C267   1.474       .  S
Cr107       O110   1.764       .  S
Cr108       O110   1.769       .  S
Cr109       O110   1.773       .  S
O111       Cr129   2.026       .  S
O111        C119   1.270       .  A
O112       Cr129   1.947       .  S
O112        C113   1.254       .  A
C113        O114   1.275       .  A
C113        C552   1.471       .  S
O114       Cr130   2.045       .  S
O115       Cr130   1.972       .  S
O115        C116   1.255       .  A
C116        O117   1.263       .  A
C116        C363   1.463       .  S
O117       Cr131   2.008       .  S
O118       Cr131   1.958       .  S
O118        C119   1.256       .  A
C119        C200   1.461       .  S
O120       Cr129   1.981       .  S
O120        C128   1.262       .  A
O121       Cr129   2.048       .  S
O121        C122   1.269   1_554  A
C122        O123   1.251   1_556  A
C122        C379   1.484       .  S
O123       Cr130   1.955       .  S
O124       Cr130   2.024       .  S
O124        C125   1.272       .  A
C125        O126   1.259       .  A
C125        C219   1.462       .  S
O126       Cr131   1.953       .  S
O127       Cr131   2.019       .  S
O127        C128   1.269       .  A
C128        C264   1.475       .  S
Cr129       O132   1.775       .  S
Cr130       O132   1.767       .  S
Cr131       O132   1.769       .  S
O133       Cr151   2.021       .  S
O133        C141   1.269       .  A
O134       Cr151   1.945       .  S
O134        C135   1.253       .  A
C135        O136   1.276       .  A
C135        C312   1.471       .  S
O136       Cr152   2.049       .  S
O137       Cr152   1.977       .  S
O137        C138   1.256       .  A
C138        O139   1.264       .  A
C138        C443   1.470       .  S
O139       Cr153   2.017       .  S
O140       Cr153   1.962       .  S
O140        C141   1.257       .  A
C141        C232   1.461       .  S
O142       Cr151   1.980       .  S
O142        C150   1.261       .  A
O143       Cr151   2.039       .  S
O143        C144   1.268       .  A
C144        O145   1.251       .  A
C144        C459   1.476       .  S
O145       Cr152   1.958       .  S
O146       Cr152   2.031       .  S
O146        C147   1.275       .  A
C147        O148   1.257       .  A
C147        C251   1.462       .  S
O148       Cr153   1.947       .  S
O149       Cr153   2.025       .  S
O149        C150   1.271       .  A
C150        C184   1.478       .  S
Cr151       O154   1.771       .  S
Cr152       O154   1.769       .  S
Cr153       O154   1.767       .  S
O155       Cr173   1.965       .  S
O155        C163   1.258       .  A
O156       Cr173   2.013       .  S
O156        C157   1.264       .  A
C157        O158   1.259       .  A
C157        C539   1.475       .  S
O158       Cr174   1.986       .  S
O159       Cr174   2.048       .  S
O159        C160   1.276       .  A
C160        O161   1.255       .  A
C160        C328   1.478       .  S
O161       Cr175   1.958       .  S
O162       Cr175   2.014       .  S
O162        C163   1.268       .  A
C163        C216   1.460       .  S
O164       Cr173   2.021       .  S
O164        C172   1.268       .  A
O165       Cr173   1.952       .  S
O165        C166   1.258       .  A
C166        O167   1.273       .  A
C166        C203   1.461       .  S
O167       Cr174   2.025       .  S
O168       Cr174   1.959       .  S
O168        C169   1.251       .  A
C169        O170   1.267       .  A
C169        C523   1.472       .  S
O170       Cr175   2.031       .  S
O171       Cr175   1.989       .  S
O171        C172   1.263       .  A
C172        C187   1.480       .  S
Cr173       O176   1.768       .  S
Cr174       O176   1.770       .  S
Cr175       O176   1.776       .  S
C177        C182   1.380       .  A
C177        C178   1.409       .  A
C177        O183   1.323       .  A
C178        C179   1.408       .  A
C178        H189   1.082       .  S
C179        C188   1.369       .  A
C179        C180   1.380       .  A
C180        C181   1.404       .  A
C180        O186   1.320       .  A
C181        C182   1.403       .  A
C181        H190   1.084       .  S
C182        C185   1.363       .  A
O183        C184   1.334       .  A
C184        C185   1.392       .  A
C185        H191   1.084       .  S
O186        C187   1.332       .  A
C187        C188   1.395       .  A
C188        H192   1.081       .  S
C193        C198   1.381   1_655  A
C193        C194   1.403   1_655  A
C193        O199   1.315       .  A
C194        C195   1.400       .  A
C194        H205   1.084       .  S
C195        C204   1.364       .  A
C195        C196   1.381       .  A
C196        C197   1.400       .  A
C196        O202   1.312       .  A
C197        C198   1.398       .  A
C197        H206   1.083       .  S
C198        C201   1.361   1_455  A
O199        C200   1.330       .  A
C200        C201   1.388       .  A
C201        H207   1.083       .  S
O202        C203   1.329       .  A
C203        C204   1.390       .  A
C204        H208   1.083       .  S
C209        C214   1.380       .  A
C209        C210   1.404       .  A
C209        O215   1.316       .  A
C210        C211   1.402       .  A
C210        H221   1.081       .  S
C211        C220   1.364       .  A
C211        C212   1.381       .  A
C212        C213   1.400       .  A
C212        O218   1.313       .  A
C213        C214   1.398       .  A
C213        H222   1.081       .  S
C214        C217   1.358       .  A
O215        C216   1.330       .  A
C216        C217   1.388       .  A
C217        H223   1.082       .  S
O218        C219   1.329       .  A
C219        C220   1.390       .  A
C220        H224   1.082       .  S
C225        C230   1.381       .  A
C225        C226   1.398       .  A
C225        O231   1.316       .  A
C226        C227   1.399       .  A
C226        H237   1.081       .  S
C227        C236   1.353       .  A
C227        C228   1.381       .  A
C228        C229   1.402       .  A
C228        O234   1.320       .  A
C229        C230   1.403       .  A
C229        H238   1.081       .  S
C230        C233   1.358       .  A
O231        C232   1.328       .  A
C232        C233   1.391       .  A
C233        H239   1.082       .  S
O234        C235   1.330       .  A
C235        C236   1.389       .  A
C236        H240   1.082       .  S
C241        C246   1.381   1_655  A
C241        C242   1.402   1_655  A
C241        O247   1.313       .  A
C242        C243   1.399       .  A
C242        H253   1.083       .  S
C243        C252   1.364       .  A
C243        C244   1.381       .  A
C244        C245   1.403       .  A
C244        O250   1.313       .  A
C245        C246   1.400       .  A
C245        H254   1.082       .  S
C246        C249   1.364   1_455  A
O247        C248   1.329       .  A
C248        C249   1.389       .  A
C249        H255   1.082       .  S
O250        C251   1.330       .  A
C251        C252   1.389       .  A
C252        H256   1.082       .  S
C257        C262   1.380       .  A
C257        C258   1.405       .  A
C257        O263   1.321       .  A
C258        C259   1.405       .  A
C258        H269   1.081       .  S
C259        C268   1.364       .  A
C259        C260   1.380       .  A
C260        C261   1.405       .  A
C260        O266   1.320       .  A
C261        C262   1.404       .  A
C261        H270   1.082       .  S
C262        C265   1.363       .  A
O263        C264   1.332       .  A
C264        C265   1.393       .  A
C265        H271   1.083       .  S
O266        C267   1.332       .  A
C267        C268   1.392       .  A
C268        H272   1.082       .  S
C273        C278   1.381       .  A
C273        C274   1.402       .  A
C273        O279   1.321       .  A
C274        C275   1.403       .  A
C274        H285   1.083       .  S
C275        C284   1.357       .  A
C275        C276   1.380       .  A
C276        C277   1.408       .  A
C276        O282   1.326       .  A
C277        C278   1.409       .  A
C277        H286   1.083       .  S
C278        C281   1.366       .  A
O279        C280   1.330       .  A
C280        C281   1.392       .  A
C281        H287   1.083       .  S
O282        C283   1.334       .  A
C283        C284   1.394       .  A
C284        H288   1.083       .  S
C289        C294   1.379       .  A
C289        C290   1.410       .  A
C289        O295   1.321       .  A
C290        C291   1.408       .  A
C290        H301   1.079       .  S
C291        C300   1.372       .  A
C291        C292   1.379       .  A
C292        C293   1.403       .  A
C292        O298   1.314       .  A
C293        C294   1.400       .  A
C293        H302   1.078       .  S
C294        C297   1.364       .  A
O295        C296   1.332       .  A
C296        C297   1.389       .  A
C297        H303   1.080       .  S
O298        C299   1.331       .  A
C299        C300   1.395       .  A
C300        H304   1.081       .  S
C305        C310   1.379       .  A
C305        C306   1.406       .  A
C305        O311   1.313       .  A
C306        C307   1.402       .  A
C306        H317   1.082       .  S
C307        C316   1.371       .  A
C307        C308   1.379       .  A
C308        C309   1.406       .  A
C308        O314   1.313       .  A
C309        C310   1.401       .  A
C309        H318   1.082       .  S
C310        C313   1.370       .  A
O311        C312   1.333       .  A
C312        C313   1.391       .  A
C313        H319   1.082       .  S
O314        C315   1.332       .  A
C315        C316   1.392       .  A
C316        H320   1.082       .  S
C321        C326   1.379       .  A
C321        C322   1.409       .  A
C321        O327   1.318       .  A
C322        C323   1.405       .  A
C322        H333   1.084       .  S
C323        C332   1.372       .  A
C323        C324   1.379   1_545  A
C324        C325   1.406       .  A
C324        O330   1.316       .  A
C325        C326   1.403   1_565  A
C325        H334   1.084       .  S
C326        C329   1.369       .  A
O327        C328   1.334       .  A
C328        C329   1.392       .  A
C329        H335   1.083   1_545  S
O330        C331   1.333       .  A
C331        C332   1.393   1_565  A
C332        H336   1.083       .  S
C337        C342   1.380       .  A
C337        C338   1.403       .  A
C337        O343   1.320       .  A
C338        C339   1.402       .  A
C338        H349   1.085       .  S
C339        C348   1.361       .  A
C339        C340   1.380       .  A
C340        C341   1.410       .  A
C340        O346   1.325       .  A
C341        C342   1.410       .  A
C341        H350   1.083       .  S
C342        C345   1.370       .  A
O343        C344   1.331       .  A
C344        C345   1.396       .  A
C345        H351   1.082       .  S
O346        C347   1.335       .  A
C347        C348   1.391       .  A
C348        H352   1.084       .  S
C353        C358   1.380       .  A
C353        C354   1.406       .  A
C353        O359   1.324       .  A
C354        C355   1.407       .  A
C354        H365   1.081       .  S
C355        C364   1.363       .  A
C355        C356   1.381       .  A
C356        C357   1.399       .  A
C356        O362   1.319   1_565  A
C357        C358   1.400       .  A
C357        H366   1.081       .  S
C358        C361   1.354       .  A
O359        C360   1.333       .  A
C360        C361   1.391       .  A
C361        H367   1.082       .  S
O362        C363   1.328       .  A
C363        C364   1.391   1_545  A
C364        H368   1.082       .  S
C369        C374   1.381       .  A
C369        C370   1.400       .  A
C369        O375   1.320   1_545  A
C370        C371   1.401       .  A
C370        H381   1.084       .  S
C371        C380   1.355       .  A
C371        C372   1.380       .  A
C372        C373   1.411       .  A
C372        O378   1.330       .  A
C373        C374   1.412       .  A
C373        H382   1.084       .  S
C374        C377   1.370       .  A
O375        C376   1.329       .  A
C376        C377   1.395   1_565  A
C377        H383   1.083       .  S
O378        C379   1.336       .  A
C379        C380   1.393       .  A
C380        H384   1.083       .  S
C385        C390   1.380       .  A
C385        C386   1.404   1_455  A
C385        O391   1.311       .  A
C386        C387   1.399       .  A
C386        H397   1.082       .  S
C387        C396   1.368       .  A
C387        C388   1.380       .  A
C388        C389   1.404   1_655  A
C388        O394   1.311   1_556  A
C389        C390   1.399       .  A
C389        H398   1.082       .  S
C390        C393   1.368       .  A
O391        C392   1.331       .  A
C392        C393   1.390       .  A
C393        H399   1.082       .  S
O394        C395   1.331       .  A
C395        C396   1.390   1_554  A
C396        H400   1.082       .  S
C401        C406   1.382       .  A
C401        C402   1.397       .  A
C401        O407   1.317   1_655  A
C402        C403   1.398       .  A
C402        H413   1.083       .  S
C403        C412   1.352       .  A
C403        C404   1.381       .  A
C404        C405   1.403       .  A
C404        O410   1.321       .  A
C405        C406   1.404       .  A
C405        H414   1.083       .  S
C406        C409   1.359   1_655  A
O407        C408   1.327       .  A
C408        C409   1.392       .  A
C409        H415   1.083       .  S
O410        C411   1.331       .  A
C411        C412   1.389       .  A
C412        H416   1.083       .  S
C417        C422   1.381       .  A
C417        C418   1.403       .  A
C417        O423   1.322       .  A
C418        C419   1.405       .  A
C418        H429   1.081       .  S
C419        C428   1.359       .  A
C419        C420   1.382       .  A
C420        C421   1.396       .  A
C420        O426   1.316       .  A
C421        C422   1.397       .  A
C421        H430   1.081       .  S
C422        C425   1.350       .  A
O423        C424   1.331       .  A
C424        C425   1.388       .  A
C425        H431   1.082       .  S
O426        C427   1.327       .  A
C427        C428   1.393       .  A
C428        H432   1.082       .  S
C433        C438   1.380       .  A
C433        C434   1.406       .  A
C433        O439   1.324       .  A
C434        C435   1.407       .  A
C434        H445   1.081       .  S
C435        C444   1.364       .  A
C435        C436   1.381       .  A
C436        C437   1.403       .  A
C436        O442   1.322       .  A
C437        C438   1.404       .  A
C437        H446   1.081       .  S
C438        C441   1.359   1_554  A
O439        C440   1.332   1_554  A
C440        C441   1.393       .  A
C441        H447   1.082       .  S
O442        C443   1.330       .  A
C443        C444   1.391       .  A
C444        H448   1.082       .  S
C449        C454   1.380       .  A
C449        C450   1.410       .  A
C449        O455   1.323       .  A
C450        C451   1.409       .  A
C450        H461   1.080       .  S
C451        C460   1.373       .  A
C451        C452   1.379       .  A
C452        C453   1.403       .  A
C452        O458   1.315       .  A
C453        C454   1.400       .  A
C453        H462   1.079       .  S
C454        C457   1.363       .  A
O455        C456   1.333       .  A
C456        C457   1.388       .  A
C457        H463   1.081       .  S
O458        C459   1.331       .  A
C459        C460   1.395       .  A
C460        H464   1.081       .  S
C465        C470   1.381       .  A
C465        C466   1.403       .  A
C465        O471   1.314       .  A
C466        C467   1.400       .  A
C466        H477   1.081       .  S
C467        C476   1.363       .  A
C467        C468   1.381       .  A
C468        C469   1.399       .  A
C468        O474   1.311       .  A
C469        C470   1.396       .  A
C469        H478   1.081       .  S
C470        C473   1.358       .  A
O471        C472   1.329       .  A
C472        C473   1.387       .  A
C473        H479   1.082       .  S
O474        C475   1.328       .  A
C475        C476   1.390       .  A
C476        H480   1.082       .  S
C481        C486   1.381       .  A
C481        C482   1.401       .  A
C481        O487   1.313       .  A
C482        C483   1.399       .  A
C482        H493   1.084       .  S
C483        C492   1.362   1_655  A
C483        C484   1.381       .  A
C484        C485   1.401       .  A
C484        O490   1.313   1_655  A
C485        C486   1.399       .  A
C485        H494   1.084       .  S
C486        C489   1.362       .  A
O487        C488   1.330       .  A
C488        C489   1.389       .  A
C489        H495   1.083       .  S
O490        C491   1.329       .  A
C491        C492   1.389       .  A
C492        H496   1.083       .  S
C497        C502   1.380       .  A
C497        C498   1.405       .  A
C497        O503   1.322       .  A
C498        C499   1.405       .  A
C498        H509   1.086       .  S
C499        C508   1.364       .  A
C499        C500   1.380       .  A
C500        C501   1.407       .  A
C500        O506   1.324       .  A
C501        C502   1.407       .  A
C501        H510   1.084       .  S
C502        C505   1.366       .  A
O503        C504   1.333       .  A
C504        C505   1.394       .  A
C505        H511   1.083       .  S
O506        C507   1.334       .  A
C507        C508   1.393       .  A
C508        H512   1.085       .  S
C513        C518   1.380       .  A
C513        C514   1.408       .  A
C513        O519   1.320       .  A
C514        C515   1.406       .  A
C514        H525   1.079       .  S
C515        C524   1.369       .  A
C515        C516   1.379       .  A
C516        C517   1.404       .  A
C516        O522   1.316       .  A
C517        C518   1.402       .  A
C517        H526   1.079       .  S
C518        C521   1.365   1_545  A
O519        C520   1.331   1_545  A
C520        C521   1.389       .  A
C521        H527   1.081       .  S
O522        C523   1.331       .  A
C523        C524   1.393       .  A
C524        H528   1.081       .  S
C529        C534   1.379       .  A
C529        C530   1.405       .  A
C529        O535   1.317   1_554  A
C530        C531   1.403       .  A
C530        H541   1.081       .  S
C531        C540   1.365   1_565  A
C531        C532   1.379       .  A
C532        C533   1.411       .  A
C532        O538   1.324       .  A
C533        C534   1.410       .  A
C533        H542   1.080       .  S
C534        C537   1.372       .  A
O535        C536   1.332       .  A
C536        C537   1.396   1_556  A
C537        H543   1.081       .  S
O538        C539   1.335   1_565  A
C539        C540   1.389       .  A
C540        H544   1.082       .  S
C545        C550   1.379       .  A
C545        C546   1.406   1_655  A
C545        O551   1.314   1_556  A
C546        C547   1.402       .  A
C546        H557   1.080       .  S
C547        C556   1.368   1_545  A
C547        C548   1.379   1_545  A
C548        C549   1.407   1_455  A
C548        O554   1.315       .  A
C549        C550   1.403   1_565  A
C549        H558   1.079       .  S
C550        C553   1.370       .  A
O551        C552   1.332       .  A
C552        C553   1.392   1_554  A
C553        H559   1.080   1_545  S
O554        C555   1.332       .  A
C555        C556   1.391       .  A
C556        H560   1.081   1_565  S
