geometry optimzed in LAMMPS
_audit_creation_date              2020-11-30 
_audit_creation_method            'lammps2cif' 
_symmetry_space_group_name_H-M    'P1' 
_symmetry_Int_Tables_number       1 
_symmetry_cell_setting            triclinic 
loop_ 
_symmetry_equiv_pos_as_xyz 
  x,y,z 
_cell_length_a                    29.78749203 
_cell_length_b                    49.41302278562774 
_cell_length_c                    26.319698248810415 
_cell_angle_alpha                 90.05960961300282 
_cell_angle_beta                  90.01110926098153 
_cell_angle_gamma                 89.99855899667773 
loop_ 
_atom_site_label 
_atom_site_type_symbol 
_atom_site_fract_x 
_atom_site_fract_y 
_atom_site_fract_z 
_atom_site_charge 
O1          O  0.13257171  0.91249631  0.73382684    -0.85800
O2          O  0.20972088  0.94178662  0.71884112    -0.82800
C3          C  0.19961365  0.96585304  0.73067956     0.97700
O4          O  0.18958212  0.97173756  0.77577152    -0.82800
O5          O  0.15971092  0.96397518  0.87454027    -0.85500
C6          C  0.11889746  0.95622408  0.87504669     1.02200
O7          O  0.10810639  0.93360149  0.85700307    -0.78200
O8          O  0.10879163  0.88867872  0.79873066    -0.78400
C9          C  0.10145968  0.90002931  0.75615412     1.02200
O10         O  0.18419582  0.86750654  0.77218098    -0.85800
O11         O  0.25828808  0.89992189  0.76966955    -0.82800
C12         C  0.28517258  0.91856562  0.78140900     0.97700
O13         O  0.27073812  0.94143179  0.79649211    -0.82800
O14         O  0.24024509  0.93181360  0.89128073    -0.85500
C15         C  0.21646852  0.92587429  0.92883053     1.02200
O16         O  0.17820925  0.91524219  0.92140519    -0.78300
O17         O  0.18669220  0.86960583  0.85514263    -0.78400
C18         C  0.18940650  0.85585150  0.81470396     1.02200
Cr19       Cr  0.19542390  0.90644325  0.75292165     1.93700
Cr20       Cr  0.21285745  0.95008649  0.83312202     1.93200
Cr21       Cr  0.14871337  0.90274437  0.85525003     1.39100
O22         O  0.18554754  0.92002175  0.81378673    -1.23500
O23         O  0.11385967  0.61883621  0.79741080    -0.85800
O24         O  0.11144413  0.57388250  0.85590974    -0.82800
C25         C  0.12181274  0.55127773  0.87438951     0.97700
O26         O  0.16272098  0.54382760  0.87663640    -0.82800
O27         O  0.19342605  0.53487024  0.77864884    -0.85500
C28         C  0.20350612  0.53998904  0.73324544     1.02200
O29         O  0.21355409  0.56383763  0.71999999    -0.78200
O30         O  0.13749886  0.59381206  0.73423783    -0.78400
C31         C  0.10644232  0.60653497  0.75596381     1.02200
O32         O  0.19068348  0.63763661  0.85453673    -0.85800
O33         O  0.18045908  0.59284286  0.92096840    -0.82800
C34         C  0.21863818  0.58271737  0.93044858     0.97700
O35         O  0.24356519  0.57564188  0.89440104    -0.82800
O36         O  0.27481740  0.56478711  0.79887632    -0.85500
C37         C  0.28950746  0.58667545  0.77964159     1.02200
O38         O  0.26331990  0.60576160  0.76856967    -0.78300
O39         O  0.19008224  0.63912290  0.77138680    -0.78400
C40         C  0.19406636  0.65111407  0.81390723     1.02200
Cr41       Cr  0.15241325  0.60474241  0.85450745     1.93700
Cr42       Cr  0.21660582  0.55704117  0.83562472     1.93200
Cr43       Cr  0.20024946  0.59975529  0.75300501     1.39100
O44         O  0.19002364  0.58703300  0.81451845    -1.23500
O45         O  0.60688835  0.88701840  0.62571444    -0.85800
O46         O  0.60377865  0.93349805  0.57114870    -0.82800
C47         C  0.61446657  0.95583467  0.55173349     0.97700
O48         O  0.65578241  0.96246761  0.54710666    -0.82800
O49         O  0.69606360  0.96974319  0.64191535    -0.85500
C50         C  0.70649410  0.96340252  0.68675090     1.02200
O51         O  0.71354206  0.93895029  0.69845170    -0.78200
O52         O  0.63436309  0.91128080  0.68777528    -0.78400
C53         C  0.60189329  0.89891752  0.66797878     1.02200
O54         O  0.67901214  0.86837910  0.56123752    -0.85800
O55         O  0.66586722  0.91443470  0.49861355    -0.82800
C56         C  0.70435909  0.92302857  0.48637976     0.97700
O57         O  0.73249689  0.92802858  0.52051370    -0.82800
O58         O  0.77190666  0.93668119  0.61312893    -0.85500
C59         C  0.78530085  0.91425634  0.63156048     1.02200
O60         O  0.75766838  0.89638939  0.64490349    -0.78300
O61         O  0.68269801  0.86550626  0.64425232    -0.78400
C62         C  0.68534697  0.85439365  0.60078647     1.02200
Cr63       Cr  0.64241415  0.90176057  0.56673475     1.93700
Cr64       Cr  0.71188901  0.94708643  0.58219525     1.93200
Cr65       Cr  0.69596463  0.90407358  0.66456705     1.39100
O66         O  0.68366282  0.91792125  0.60454565    -1.23500
O67         O  0.63994589  0.59593872  0.68822704    -0.85800
O68         O  0.71894854  0.56756323  0.70248669    -0.82800
C69         C  0.70657401  0.54353802  0.69381184     0.97700
O70         O  0.69216684  0.53711565  0.65055972    -0.82800
O71         O  0.66239106  0.54140804  0.55097037    -0.85500
C72         C  0.62160285  0.54905437  0.55164681     1.02200
O73         O  0.61132494  0.57221388  0.56747413    -0.78200
O74         O  0.61384903  0.61810462  0.62229777    -0.78400
C75         C  0.60774871  0.60714643  0.66542000     1.02200
O76         O  0.68918830  0.64014905  0.64446053    -0.85800
O77         O  0.76375629  0.60831901  0.64593880    -0.82800
C78         C  0.79012983  0.58897646  0.63725821     0.97700
O79         O  0.77503371  0.56578715  0.62460203    -0.82800
O80         O  0.74266383  0.57239418  0.52935201    -0.85500
C81         C  0.71866578  0.57903991  0.49225659     1.02200
O82         O  0.68047266  0.58966921  0.50000316    -0.78300
O83         O  0.68953376  0.63630824  0.56170439    -0.78400
C84         C  0.69335292  0.65083791  0.60097040     1.02200
Cr85       Cr  0.70192265  0.60195840  0.66623972     1.93700
Cr86       Cr  0.71606773  0.55628004  0.59014797     1.93200
Cr87       Cr  0.65198865  0.60315793  0.56554660     1.39100
O88         O  0.69006804  0.58701570  0.60697637    -1.23500
O89         O  0.84704101  0.41388264  0.18822424    -0.85800
O90         O  0.76990706  0.44317487  0.19904951    -0.82800
C91         C  0.77957927  0.46712183  0.18614242     0.97700
O92         O  0.78981808  0.47261093  0.14093998    -0.82800
O93         O  0.82392825  0.46381903  0.04444236    -0.85500
C94         C  0.86516319  0.45713932  0.04811624     1.02200
O95         O  0.87611645  0.43501625  0.06816545    -0.78200
O96         O  0.87260473  0.38944206  0.12537932    -0.78400
C97         C  0.87889594  0.40152054  0.16722520     1.02200
O98         O  0.79621591  0.36838528  0.14777440    -0.85800
O99         O  0.72215656  0.40093284  0.14867296    -0.82800
C100        C  0.69561547  0.41966113  0.13651607     0.97700
O101        O  0.71025217  0.44172031  0.11799280    -0.82800
O102        O  0.74495375  0.43059010  0.02415906    -0.85500
C103        C  0.77148077  0.42446378  0.98901375     1.02200
O104        O  0.81009860  0.41544950  0.99978682    -0.78300
O105        O  0.79884937  0.37049054  0.06464015    -0.78400
C106        C  0.79405614  0.35675509  0.10473303     1.02200
Cr107      Cr  0.78478375  0.40749956  0.16660344     1.93700
Cr108      Cr  0.76927377  0.45002329  0.08343968     1.93200
Cr109      Cr  0.83609638  0.40360846  0.06711979     1.39100
O110        O  0.79652089  0.42056183  0.10573567    -1.23500
O111        O  0.86983893  0.12111921  0.12339610    -0.85800
O112        O  0.87560068  0.07550516  0.06867642    -0.82800
C113        C  0.86725481  0.05170881  0.05495143     0.97700
O114        O  0.82719291  0.04282715  0.05491481    -0.82800
O115        O  0.79654242  0.03814386  0.15394881    -0.85500
C116        C  0.78056750  0.04436109  0.19663297     1.02200
O117        O  0.76838981  0.06843072  0.20503590    -0.78200
O118        O  0.84611984  0.09835069  0.18974960    -0.78400
C119        C  0.87720545  0.11039381  0.16646446     1.02200
O120        O  0.79335700  0.13779505  0.06352461    -0.85800
O121        O  0.80526340  0.09076292  0.00102162    -0.82800
C122        C  0.76849483  0.07836394  0.99347074     0.97700
O123        O  0.74504965  0.07142291  0.03086866    -0.82800
O124        O  0.71287982  0.06477066  0.12651038    -0.85500
C125        C  0.69647500  0.08711010  0.14188735     1.02200
O126        O  0.72094898  0.10756091  0.14892330    -0.78300
O127        O  0.79387138  0.14139712  0.14637904    -0.78400
C128        C  0.79020732  0.15230359  0.10301483     1.02200
Cr129      Cr  0.83265100  0.10524538  0.06687942     1.93700
Cr130      Cr  0.77228634  0.05657677  0.09263178     1.93200
Cr131      Cr  0.78351972  0.10292682  0.16824766     1.39100
O132        O  0.79592252  0.08815698  0.10882356    -1.23500
O133        O  0.37247270  0.39020420  0.29674992    -0.85800
O134        O  0.37588605  0.43514680  0.35460661    -0.82800
C135        C  0.36565033  0.45793515  0.37224085     0.97700
O136        O  0.32480186  0.46551488  0.37367630    -0.82800
O137        O  0.29412071  0.47225793  0.27487967    -0.85500
C138        C  0.28019678  0.46654990  0.23103749     1.02200
O139        O  0.26767230  0.44269470  0.22082401    -0.78200
O140        O  0.34575513  0.41337705  0.23235582    -0.78400
C141        C  0.37798566  0.40150817  0.25379209     1.02200
O142        O  0.29694029  0.37126239  0.35713448    -0.85800
O143        O  0.30667973  0.41674565  0.42173936    -0.82800
C144        C  0.26827733  0.42698786  0.43031904     0.97700
O145        O  0.24425408  0.43428921  0.39367106    -0.82800
O146        O  0.21128885  0.44341522  0.29910754    -0.85500
C147        C  0.19614113  0.42063364  0.28425289     1.02200
O148        O  0.22236922  0.40123213  0.27559187    -0.78300
O149        O  0.29619258  0.36862292  0.27425071    -0.78400
C150        C  0.29285870  0.35723699  0.31726456     1.02200
Cr151      Cr  0.33478552  0.40433566  0.35491010     1.93700
Cr152      Cr  0.27064406  0.45176017  0.33399179     1.93200
Cr153      Cr  0.28401482  0.40744828  0.25490138     1.39100
O154        O  0.29654720  0.42134442  0.31481125    -1.23500
O155        O  0.34836546  0.09587651  0.23718579    -0.85800
O156        O  0.27138179  0.06763356  0.21833671    -0.82800
C157        C  0.28036445  0.04336467  0.22982408     0.97700
O158        O  0.28995881  0.03717424  0.27490688    -0.82800
O159        O  0.31885658  0.04361289  0.37431934    -0.85500
C160        C  0.36002467  0.05070288  0.37466771     1.02200
O161        O  0.37138800  0.07374170  0.35926935    -0.78200
O162        O  0.37194819  0.11894930  0.30302208    -0.78400
C163        C  0.37990596  0.10658662  0.26170324     1.02200
O164        O  0.29755050  0.14123888  0.27566363    -0.85800
O165        O  0.22272915  0.10936572  0.26905272    -0.82800
C166        C  0.19565455  0.09039590  0.27791619     0.97700
O167        O  0.20921182  0.06779971  0.29517225    -0.82800
O168        O  0.23885430  0.07691879  0.39056069    -0.85500
C169        C  0.26203937  0.08211057  0.42899071     1.02200
O170        O  0.30075807  0.09229373  0.42320757    -0.78300
O171        O  0.29445594  0.13851115  0.35862047    -0.78400
C172        C  0.29259007  0.15260458  0.31859352     1.02200
Cr173      Cr  0.28578183  0.10260837  0.25439638     1.93700
Cr174      Cr  0.26639696  0.05851517  0.33270418     1.93200
Cr175      Cr  0.33131986  0.10496851  0.35811216     1.39100
O176        O  0.29444420  0.08849608  0.31511504    -1.23500
C177        C  0.28763621  0.32728675  0.32016123    -0.01700
C178        C  0.28848237  0.31375366  0.36697580    -0.09700
C179        C  0.28724432  0.28541388  0.36929032    -0.18600
C180        C  0.28523496  0.26951210  0.32454111     0.03800
C181        C  0.28349861  0.28338163  0.27723890     0.18000
C182        C  0.28448432  0.31182572  0.27551828    -0.20000
C183        C  0.28154590  0.26880544  0.23168147    -0.21200
C184        C  0.28181628  0.24068924  0.23187781    -0.19800
C185        C  0.28394041  0.22634718  0.27764186     0.19400
C186        C  0.28541596  0.24044919  0.32474949     0.01500
C187        C  0.28748128  0.22476489  0.36972467    -0.14500
C188        C  0.28871055  0.19639885  0.36781625    -0.12200
C189        C  0.28792616  0.18262787  0.32118850     0.01100
C190        C  0.28513057  0.19789892  0.27632182    -0.24400
H191        H  0.29093095  0.32509812  0.40209747     0.09100
H192        H  0.28846499  0.27653433  0.40663945     0.12600
H193        H  0.28373699  0.32193617  0.23898014     0.11400
H194        H  0.28018696  0.27924155  0.19550765     0.12600
H195        H  0.28063886  0.23006670  0.19584796     0.11600
H196        H  0.28858762  0.23383587  0.40695269     0.08700
H197        H  0.29102866  0.18522151  0.40309190     0.11900
H198        H  0.28449595  0.18762103  0.23990824     0.13800
C199        C  0.92252669  0.11142322  0.18847520    -0.01700
C200        C  0.95565802  0.12709510  0.16518649    -0.09700
C201        C  0.00003659  0.12547801  0.18101827    -0.18600
C202        C  0.01288876  0.10770443  0.22050031     0.03800
C203        C  0.97877041  0.09286301  0.24586078     0.18000
C204        C  0.93399586  0.09493837  0.22985176    -0.20000
C205        C  0.98974401  0.07549769  0.28600686    -0.21200
C206        C  0.03423015  0.07200176  0.30068241    -0.19800
C207        C  0.06873342  0.08562848  0.27526580     0.19400
C208        C  0.05842969  0.10382289  0.23500924     0.01500
C209        C  0.09426820  0.11693524  0.21010130    -0.14500
C210        C  0.13829777  0.11242478  0.22477967    -0.12200
C211        C  0.14840104  0.09453599  0.26427950     0.01100
C212        C  0.11360409  0.08102669  0.28938371    -0.24400
H213        H  0.94748553  0.14026181  0.13362106     0.09100
H214        H  0.02339619  0.13813996  0.16086298     0.12600
H215        H  0.90840737  0.08280554  0.24827018     0.11400
H216        H  0.96380763  0.06428003  0.30574773     0.12600
H217        H  0.04175258  0.05824301  0.33157915     0.11600
H218        H  0.08971514  0.13063456  0.17876699     0.08700
H219        H  0.16480473  0.12277598  0.20435901     0.11900
H220        H  0.12143546  0.06715686  0.32003931     0.13800
C221        C  0.64944603  0.08883608  0.15733967    -0.01700
C222        C  0.61621850  0.07365641  0.13319206    -0.09700
C223        C  0.57171719  0.07546674  0.14930903    -0.18600
C224        C  0.55961851  0.09228324  0.19079325     0.03800
C225        C  0.59414525  0.10682657  0.21606758     0.18000
C226        C  0.63830768  0.10519950  0.19884619    -0.20000
C227        C  0.58453509  0.12300028  0.25832306    -0.21200
C228        C  0.54080002  0.12564967  0.27551535    -0.19800
C229        C  0.50575720  0.11242226  0.25043787     0.19400
C230        C  0.51462790  0.09538937  0.20793145     0.01500
C231        C  0.47798083  0.08257408  0.18394387    -0.14500
C232        C  0.43442806  0.08682157  0.20098652    -0.12200
C233        C  0.42591879  0.10378188  0.24256817     0.01100
C234        C  0.46173633  0.11632926  0.26744561    -0.24400
H235        H  0.62460709  0.06063593  0.10143477     0.09100
H236        H  0.54778746  0.06338630  0.12865756     0.12600
H237        H  0.66439880  0.11642063  0.21847376     0.11400
H238        H  0.61099830  0.13383218  0.27799206     0.12600
H239        H  0.53425888  0.13846326  0.30814024     0.11600
H240        H  0.48165928  0.06931491  0.15172911     0.08700
H241        H  0.40728427  0.07645483  0.18166281     0.11900
H242        H  0.45539075  0.12919181  0.30007795     0.13800
C243        C  0.64740782  0.41594683  0.14719678    -0.01700
C244        C  0.61507774  0.43354735  0.12740729    -0.09700
C245        C  0.56980015  0.43038942  0.13995596    -0.18600
C246        C  0.55568877  0.40966465  0.17353054     0.03800
C247        C  0.58884514  0.39196890  0.19346554     0.18000
C248        C  0.63384630  0.39500651  0.17964737    -0.20000
C249        C  0.57722674  0.37172724  0.22818769    -0.21200
C250        C  0.53332722  0.36917177  0.24499749    -0.19800
C251        C  0.49991886  0.38644014  0.22665700     0.19400
C252        C  0.51026656  0.40639654  0.18948390     0.01500
C253        C  0.47479508  0.42247666  0.17063973    -0.14500
C254        C  0.43155303  0.41994808  0.19018669    -0.12200
C255        C  0.42228412  0.40141900  0.22906887     0.01100
C256        C  0.45634970  0.38427370  0.24625946    -0.24400
H257        H  0.62482236  0.44990788  0.10236523     0.09100
H258        H  0.54690418  0.44489021  0.12378052     0.12600
H259        H  0.65867028  0.38142055  0.19569825     0.11400
H260        H  0.60249208  0.35818445  0.24340678     0.12600
H261        H  0.52554477  0.35375777  0.27291590     0.11600
H262        H  0.47942179  0.43735990  0.14122361     0.08700
H263        H  0.40557829  0.43327685  0.17590630     0.11900
H264        H  0.44918747  0.36958329  0.27575496     0.13800
C265        C  0.14828884  0.41650887  0.27251358    -0.01700
C266        C  0.13630141  0.39401635  0.24305076    -0.09700
C267        C  0.09229886  0.38977944  0.22828298    -0.18600
C268        C  0.05818425  0.40800360  0.24253728     0.03800
C269        C  0.06985271  0.43029271  0.27420280     0.18000
C270        C  0.11485928  0.43454711  0.28850091    -0.20000
C271        C  0.03657470  0.44822080  0.29086898    -0.21200
C272        C  0.99212124  0.44476004  0.27587120    -0.19800
C273        C  0.98013217  0.42361258  0.24307116     0.19400
C274        C  0.01305070  0.40494246  0.22590512     0.01500
C275        C  0.99971055  0.38444432  0.19149715    -0.14500
C276        C  0.95582583  0.38295855  0.17399346    -0.12200
C277        C  0.92366399  0.40151412  0.19052187     0.01100
C278        C  0.93567597  0.42148395  0.22591685    -0.24400
H279        H  0.16130628  0.37961764  0.23024033     0.09100
H280        H  0.08637411  0.37195863  0.20578086     0.12600
H281        H  0.12382697  0.45182595  0.31180165     0.11400
H282        H  0.04500846  0.46509500  0.31541352     0.12600
H283        H  0.96712995  0.45906548  0.28910910     0.11600
H284        H  0.02244457  0.36968900  0.17599922     0.08700
H285        H  0.94724234  0.36741506  0.14658421     0.11900
H286        H  0.91090929  0.43615244  0.23834529     0.13800
C287        C  0.78628264  0.18229498  0.09985789    -0.01700
C288        C  0.79196674  0.19602453  0.05374411    -0.09700
C289        C  0.79225444  0.22439055  0.05207090    -0.18600
C290        C  0.78677655  0.24007338  0.09677288     0.03800
C291        C  0.78056509  0.22600624  0.14332053     0.18000
C292        C  0.78029569  0.19757745  0.14439373    -0.20000
C293        C  0.77508977  0.24034862  0.18879917    -0.21200
C294        C  0.77571368  0.26846401  0.18922158    -0.19800
C295        C  0.78186107  0.28301366  0.14418117     0.19400
C296        C  0.78742900  0.26910253  0.09722158     0.01500
C297        C  0.79358123  0.28491524  0.05297454    -0.14500
C298        C  0.79453992  0.31320944  0.05540042    -0.12200
C299        C  0.78952805  0.32681203  0.10184915     0.01100
C300        C  0.78289281  0.31146278  0.14604415    -0.24400
H301        H  0.79715325  0.18480977  0.01886067     0.09100
H302        H  0.79722651  0.23343832  0.01527602     0.12600
H303        H  0.77601820  0.18730316  0.18045676     0.11400
H304        H  0.77040921  0.22972520  0.22441936     0.12600
H305        H  0.77149323  0.27891262  0.22513951     0.11600
H306        H  0.79806701  0.27602153  0.01593416     0.08700
H307        H  0.80002157  0.32447287  0.02067213     0.11900
H308        H  0.77905953  0.32166387  0.18228518     0.13800
C309        C  0.76057093  0.43312416  0.93672364    -0.01700
C310        C  0.71581944  0.43657784  0.92168037    -0.09700
C311        C  0.70509986  0.45177634  0.87849972    -0.18600
C312        C  0.73901513  0.46486688  0.84996207     0.03800
C313        C  0.78444608  0.46036496  0.86443857     0.18000
C314        C  0.79474540  0.44400249  0.90643943    -0.20000
C315        C  0.81934278  0.47359750  0.83901565    -0.21200
C316        C  0.81010913  0.49214233  0.80081961    -0.19800
C317        C  0.76580439  0.49746461  0.78628448     0.19400
C318        C  0.72957657  0.48330906  0.80937399     0.01500
C319        C  0.68559533  0.48874058  0.79142189    -0.14500
C320        C  0.67803214  0.50795899  0.75322709    -0.12200
C321        C  0.71380225  0.52260940  0.73269764     0.01100
C322        C  0.75753605  0.51716331  0.74906065    -0.24400
H323        H  0.68885070  0.42858692  0.94486052     0.09100
H324        H  0.66991944  0.45415573  0.87014000     0.12600
H325        H  0.82942627  0.44196693  0.91844454     0.11400
H326        H  0.85399936  0.47030374  0.84997280     0.12600
H327        H  0.83784433  0.50264340  0.78289441     0.11600
H328        H  0.65647280  0.47841242  0.80599175     0.08700
H329        H  0.64405769  0.51179171  0.74040916     0.11900
H330        H  0.78530571  0.52823532  0.73234464     0.13800
C331        C  0.77636242  0.48880947  0.22423130    -0.01700
C332        C  0.74286350  0.50854457  0.22033360    -0.09700
C333        C  0.73525033  0.52679077  0.26016232    -0.18600
C334        C  0.76148308  0.52588601  0.30499033     0.03800
C335        C  0.79728687  0.50678592  0.30692973     0.18000
C336        C  0.80392675  0.48829908  0.26709155    -0.20000
C337        C  0.82548838  0.50564723  0.34929747    -0.21200
C338        C  0.81800468  0.52236972  0.39079815    -0.19800
C339        C  0.78153827  0.54022743  0.39142625     0.19400
C340        C  0.75283585  0.54251747  0.34854366     0.01500
C341        C  0.71564396  0.56033311  0.35235478    -0.14500
C342        C  0.70587047  0.57381389  0.39800723    -0.12200
C343        C  0.73344339  0.57054215  0.44071097     0.01100
C344        C  0.77234580  0.55466524  0.43604295    -0.24400
H345        H  0.72126837  0.50911168  0.18721795     0.09100
H346        H  0.70829761  0.54109237  0.25511510     0.12600
H347        H  0.83004823  0.47306107  0.26980236     0.11400
H348        H  0.85311425  0.49138569  0.35071399     0.12600
H349        H  0.83999703  0.52060565  0.42344811     0.11600
H350        H  0.69230471  0.56322174  0.32153985     0.08700
H351        H  0.67555091  0.58583872  0.40050974     0.11900
H352        H  0.79411915  0.55185040  0.46864341     0.13800
C353        C  0.58484466  0.53230073  0.53070664    -0.01700
C354        C  0.54080619  0.53723509  0.54710092    -0.09700
C355        C  0.50419118  0.52598048  0.52189302    -0.18600
C356        C  0.51029660  0.50938927  0.47878492     0.03800
C357        C  0.55510557  0.50306879  0.46398580     0.18000
C358        C  0.59190040  0.51454316  0.48995292    -0.20000
C359        C  0.56279938  0.48577118  0.42276104    -0.21200
C360        C  0.52700024  0.47443845  0.39622830    -0.19800
C361        C  0.48260580  0.48067472  0.40941014     0.19400
C362        C  0.47355172  0.49871999  0.45012625     0.01500
C363        C  0.42810436  0.50540697  0.46010530    -0.14500
C364        C  0.39308919  0.49338239  0.43280137    -0.12200
C365        C  0.40215656  0.47434856  0.39484201     0.01100
C366        C  0.44710946  0.46860897  0.38257219    -0.24400
H367        H  0.53449246  0.55063554  0.57893969     0.09100
H368        H  0.47152430  0.53084391  0.53690097     0.12600
H369        H  0.62583917  0.51069926  0.47690038     0.11400
H370        H  0.59673784  0.48081136  0.41118426     0.12600
H371        H  0.53409691  0.46079251  0.36497151     0.11600
H372        H  0.41845911  0.51973013  0.48899149     0.08700
H373        H  0.35874665  0.49818328  0.44290402     0.11900
H374        H  0.45455471  0.45413902  0.35271262     0.13800
C375        C  0.57735087  0.97239822  0.53048566    -0.01700
C376        C  0.53295599  0.96637077  0.54458135    -0.09700
C377        C  0.49652616  0.97771757  0.51908625    -0.18600
C378        C  0.50306370  0.99574305  0.47824522     0.03800
C379        C  0.54804131  0.00300411  0.46570719     0.18000
C380        C  0.58463272  0.99126646  0.49165345    -0.20000
C381        C  0.55619118  0.02165155  0.42683432    -0.21200
C382        C  0.52072305  0.03350110  0.40062222    -0.19800
C383        C  0.47619774  0.02654022  0.41178201     0.19400
C384        C  0.46662085  0.00709615  0.44989510     0.01500
C385        C  0.42099877  0.99995468  0.45785289    -0.14500
C386        C  0.38629457  0.01293685  0.43140737    -0.12200
C387        C  0.39591792  0.03333413  0.39625777     0.01100
C388        C  0.44110526  0.03939467  0.38565979    -0.24400
H389        H  0.52616501  0.95206866  0.57480792     0.09100
H390        H  0.46364586  0.97189068  0.53217263     0.12600
H391        H  0.61870586  0.99600750  0.48021953     0.11400
H392        H  0.59023847  0.02731830  0.41694529     0.12600
H393        H  0.52819205  0.04823012  0.37132238     0.11600
H394        H  0.41101941  0.98462683  0.48465735     0.08700
H395        H  0.35179491  0.00776347  0.44004707     0.11900
H396        H  0.44909201  0.05483696  0.35781632     0.13800
C397        C  0.69285316  0.82472126  0.59728533    -0.01700
C398        C  0.69089062  0.81113952  0.55053582    -0.09700
C399        C  0.69451547  0.78289866  0.54810731    -0.18600
C400        C  0.70008890  0.76722913  0.59268471     0.03800
C401        C  0.70355491  0.78125066  0.63974977     0.18000
C402        C  0.70007793  0.80956087  0.64156144    -0.20000
C403        C  0.70951999  0.76694443  0.68508038    -0.21200
C404        C  0.71095330  0.73887645  0.68501616    -0.19800
C405        C  0.70633590  0.72438010  0.63963709     0.19400
C406        C  0.70139001  0.73823323  0.59263628     0.01500
C407        C  0.69688469  0.72237043  0.54805477    -0.14500
C408        C  0.69575202  0.69404763  0.55044033    -0.12200
C409        C  0.69924402  0.68060705  0.59714239     0.01100
C410        C  0.70548874  0.69601157  0.64137665    -0.24400
H411        H  0.68565280  0.82232757  0.51567329     0.09100
H412        H  0.69219000  0.77390149  0.51088742     0.12600
H413        H  0.70206934  0.81977356  0.67798271     0.11400
H414        H  0.71243793  0.77753732  0.72101735     0.12600
H415        H  0.71493319  0.72840712  0.72091064     0.11600
H416        H  0.69329466  0.73125726  0.51090586     0.08700
H417        H  0.69098289  0.68266935  0.51566383     0.11900
H418        H  0.70855026  0.68590765  0.67777395     0.13800
C419        C  0.77067017  0.02327898  0.23486037    -0.01700
C420        C  0.80210459  0.00347498  0.24814372    -0.09700
C421        C  0.79183671  0.98400042  0.28517425    -0.18600
C422        C  0.74912069  0.98338168  0.30897895     0.03800
C423        C  0.71664366  0.00264075  0.29285172     0.18000
C424        C  0.72796954  0.02259337  0.25712996    -0.20000
C425        C  0.67303653  0.00201743  0.31261955    -0.21200
C426        C  0.66113989  0.98309572  0.34922223    -0.19800
C427        C  0.69296854  0.96492371  0.36830212     0.19400
C428        C  0.73749567  0.96476375  0.34863307     0.01500
C429        C  0.76890659  0.94706658  0.37157399    -0.14500
C430        C  0.75731349  0.93171426  0.41436062    -0.12200
C431        C  0.71367858  0.93251433  0.43414752     0.01100
C432        C  0.68119903  0.94819856  0.40936849    -0.24400
H433        H  0.83498715  0.00340028  0.23057860     0.09100
H434        H  0.81774102  0.96951747  0.29402705     0.12600
H435        H  0.70309173  0.03746251  0.24581420     0.11400
H436        H  0.64797731  0.01641006  0.29991064     0.12600
H437        H  0.62722535  0.98339209  0.36416029     0.11600
H438        H  0.80338071  0.94595956  0.35930667     0.08700
H439        H  0.78308568  0.92007035  0.43346572     0.11900
H440        H  0.64767824  0.94951126  0.42532266     0.13800
C441        C  0.75470118  0.06832802  0.94215005    -0.01700
C442        C  0.78106286  0.07216090  0.89849492    -0.09700
C443        C  0.77175297  0.05784338  0.85330527    -0.18600
C444        C  0.73656764  0.03848461  0.85101305     0.03800
C445        C  0.70976646  0.03515041  0.89519607     0.18000
C446        C  0.71797994  0.05055917  0.93895377    -0.20000
C447        C  0.67616150  0.01538820  0.89677547    -0.21200
C448        C  0.66956663  0.99798929  0.85610183    -0.19800
C449        C  0.69515027  0.00056764  0.81190656     0.19400
C450        C  0.72794629  0.02144722  0.80772851     0.01500
C451        C  0.75068818  0.02395945  0.76068941    -0.14500
C452        C  0.74219617  0.00588631  0.72048231    -0.12200
C453        C  0.71170617  0.98448092  0.72635753     0.01100
C454        C  0.68823919  0.98208085  0.77205472    -0.24400
H455        H  0.80992307  0.08547222  0.89978166     0.09100
H456        H  0.79391680  0.06128394  0.82155506     0.12600
H457        H  0.69723727  0.04710127  0.97217150     0.11400
H458        H  0.65579052  0.01271613  0.93052322     0.12600
H459        H  0.64421540  0.98234523  0.85928611     0.11600
H460        H  0.77505289  0.03971366  0.75403528     0.08700
H461        H  0.76069872  0.00805112  0.68528995     0.11900
H462        H  0.66434700  0.96567898  0.77651881     0.13800
C463        C  0.08500051  0.53480181  0.89592599    -0.01700
C464        C  0.04141529  0.53820318  0.87686105    -0.09700
C465        C  0.00460955  0.52631564  0.90065479    -0.18600
C466        C  0.01000730  0.51066830  0.94508078     0.03800
C467        C  0.05448979  0.50641461  0.96338819     0.18000
C468        C  0.09148126  0.51842337  0.93871673    -0.20000
C469        C  0.06164510  0.49055659  0.00665806    -0.21200
C470        C  0.02568403  0.47861932  0.03186235    -0.19800
C471        C  0.98155497  0.48266590  0.01505090     0.19400
C472        C  0.97291601  0.49907953  0.97188559     0.01500
C473        C  0.92750397  0.50322717  0.95766025    -0.14500
C474        C  0.89238694  0.49076640  0.98405350    -0.12200
C475        C  0.90127484  0.47372345  0.02522455     0.01100
C476        C  0.94597526  0.47009572  0.04089567    -0.24400
H477        H  0.03557821  0.55066105  0.84363598     0.09100
H478        H  0.97235041  0.52996604  0.88348485     0.12600
H479        H  0.12503314  0.51594233  0.95403973     0.11400
H480        H  0.09532279  0.48724989  0.02098134     0.12600
H481        H  0.03243418  0.46620414  0.06492432     0.11600
H482        H  0.91795055  0.51582824  0.92609020     0.08700
H483        H  0.85824949  0.49367047  0.97092641     0.11900
H484        H  0.95321143  0.45700383  0.07293161     0.13800
C485        C  0.06149170  0.60644470  0.73334399    -0.01700
C486        C  0.03101557  0.62716468  0.74387341    -0.09700
C487        C  0.98760425  0.62616879  0.72429244    -0.18600
C488        C  0.97320572  0.60393383  0.69446559     0.03800
C489        C  0.00412605  0.58265254  0.68508437     0.18000
C490        C  0.04809922  0.58443275  0.70338987    -0.20000
C491        C  0.99056094  0.55931749  0.65906442    -0.21200
C492        C  0.94622618  0.55623157  0.64368713    -0.19800
C493        C  0.91500971  0.57689022  0.65214409     0.19400
C494        C  0.92865147  0.60149854  0.67564779     0.01500
C495        C  0.89699262  0.62256647  0.67975375    -0.14500
C496        C  0.85272552  0.61857702  0.66514740    -0.12200
C497        C  0.83839974  0.59351426  0.64601287     0.01100
C498        C  0.86999274  0.57297140  0.63814295    -0.24400
H499        H  0.04074190  0.64415396  0.76749291     0.09100
H500        H  0.96567759  0.64258785  0.73479977     0.12600
H501        H  0.07143077  0.56800459  0.69621988     0.11400
H502        H  0.01404387  0.54298086  0.65202224     0.12600
H503        H  0.93627612  0.53756561  0.62518671     0.11600
H504        H  0.90536451  0.64237400  0.69407706     0.08700
H505        H  0.82932958  0.63513981  0.67029701     0.11900
H506        H  0.85942577  0.55375991  0.62218669     0.13800
C507        C  0.33726938  0.58983983  0.76691976    -0.01700
C508        C  0.37020178  0.57370946  0.78950133    -0.09700
C509        C  0.41532743  0.57704898  0.77660911    -0.18600
C510        C  0.42860449  0.59647792  0.74000233     0.03800
C511        C  0.39467209  0.61230042  0.71651313     0.18000
C512        C  0.34980449  0.60908636  0.73053590    -0.20000
C513        C  0.40549294  0.63101118  0.67859264    -0.21200
C514        C  0.44954661  0.63407576  0.66266422    -0.19800
C515        C  0.48381787  0.61889442  0.68505006     0.19400
C516        C  0.47406621  0.60034791  0.72488761     0.01500
C517        C  0.51023499  0.58635995  0.74752387    -0.14500
C518        C  0.55382484  0.58956858  0.72946167    -0.12200
C519        C  0.56276823  0.60675283  0.68840326     0.01100
C520        C  0.52777717  0.62179626  0.66708518    -0.24400
H521        H  0.36109236  0.55859289  0.81744023     0.09100
H522        H  0.43882487  0.56382108  0.79531309     0.12600
H523        H  0.32433866  0.62132749  0.71211195     0.11400
H524        H  0.37959287  0.64304950  0.66054048     0.12600
H525        H  0.45683892  0.64835069  0.63252738     0.11600
H526        H  0.50597073  0.57266431  0.77896617     0.08700
H527        H  0.58044156  0.57783007  0.74680442     0.11900
H528        H  0.53456722  0.63538184  0.63567176     0.13800
C529        C  0.27432253  0.48804269  0.19279090    -0.01700
C530        C  0.31108881  0.49915872  0.16727950    -0.09700
C531        C  0.30467238  0.51805490  0.12821194    -0.18600
C532        C  0.26097170  0.52651564  0.11384086     0.03800
C533        C  0.22403979  0.51600474  0.14187109     0.18000
C534        C  0.23101135  0.49681189  0.18047491    -0.20000
C535        C  0.18020775  0.52417738  0.13043493    -0.21200
C536        C  0.17190860  0.54181644  0.09043399    -0.19800
C537        C  0.20715948  0.55146278  0.06034502     0.19400
C538        C  0.25230618  0.54426647  0.07185533     0.01500
C539        C  0.28639445  0.55405515  0.03921414    -0.14500
C540        C  0.27571825  0.56854365  0.99511929    -0.12200
C541        C  0.23098060  0.57449936  0.98282988     0.01100
C542        C  0.19711744  0.56692582  0.01695553    -0.24400
H543        H  0.34481646  0.49267507  0.17672010     0.09100
H544        H  0.33447162  0.52547885  0.10967439     0.12600
H545        H  0.20255955  0.48835513  0.20072248     0.11400
H546        H  0.15199473  0.51645825  0.15201196     0.12600
H547        H  0.13745282  0.54721948  0.08189514     0.11600
H548        H  0.32141666  0.54967529  0.04533652     0.08700
H549        H  0.30248850  0.57402490  0.96923711     0.11900
H550        H  0.16232756  0.57095681  0.00741083     0.13800
C551        C  0.20716294  0.51780620  0.69589565    -0.01700
C552        C  0.24172084  0.49875421  0.70033636    -0.09700
C553        C  0.24972166  0.47987393  0.66162895    -0.18600
C554        C  0.22276481  0.47932216  0.61737127     0.03800
C555        C  0.18554105  0.49741015  0.61519464     0.18000
C556        C  0.17867320  0.51674807  0.65373962    -0.20000
C557        C  0.15608299  0.49660577  0.57386456    -0.21200
C558        C  0.16381959  0.47909743  0.53348930    -0.19800
C559        C  0.20209275  0.46265123  0.53254625     0.19400
C560        C  0.23205791  0.46224900  0.57450732     0.01500
C561        C  0.27125290  0.44608321  0.57015075    -0.14500
C562        C  0.28180841  0.43272153  0.52451598    -0.12200
C563        C  0.25302719  0.43435416  0.48246738     0.01100
C564        C  0.21199855  0.44809019  0.48817851    -0.24400
H565        H  0.26382231  0.49920537  0.73302759     0.09100
H566        H  0.27744610  0.46615550  0.66708918     0.12600
H567        H  0.15153504  0.53129595  0.65063233     0.11400
H568        H  0.12723222  0.50994975  0.57234202     0.12600
H569        H  0.14078941  0.47939047  0.50159827     0.11600
H570        H  0.29569464  0.44475026  0.60025486     0.08700
H571        H  0.31371769  0.42235213  0.52131675     0.11900
H572        H  0.18912211  0.44947860  0.45622573     0.13800
C573        C  0.33362605  0.91356647  0.77478097    -0.01700
C574        C  0.34820228  0.88805009  0.75830853    -0.09700
C575        C  0.39300379  0.88345825  0.74650405    -0.18600
C576        C  0.42492479  0.90444281  0.75039159     0.03800
C577        C  0.41071180  0.92969949  0.77084443     0.18000
C578        C  0.36532987  0.93405228  0.78278393    -0.20000
C579        C  0.44160903  0.95070683  0.77765411    -0.21200
C580        C  0.48601898  0.94754294  0.76262287    -0.19800
C581        C  0.50026299  0.92350958  0.73949024     0.19400
C582        C  0.47001764  0.90151640  0.73326026     0.01500
C583        C  0.48557478  0.87809741  0.70768275    -0.14500
C584        C  0.52874633  0.87706688  0.68742447    -0.12200
C585        C  0.55805111  0.89889035  0.69334489     0.01100
C586        C  0.54412136  0.92175455  0.72054871    -0.24400
H587        H  0.32466213  0.87154915  0.75327815     0.09100
H588        H  0.40136880  0.86334610  0.73385778     0.12600
H589        H  0.35452433  0.95366689  0.79666737     0.11400
H590        H  0.43117987  0.96988034  0.79384082     0.12600
H591        H  0.50901161  0.96434342  0.76755325     0.11600
H592        H  0.46475991  0.86065052  0.70087367     0.08700
H593        H  0.53913269  0.85922896  0.66652686     0.11900
H594        H  0.56671771  0.93884651  0.72452893     0.13800
C595        C  0.83338228  0.90901047  0.64156655    -0.01700
C596        C  0.84544441  0.88659872  0.67132220    -0.09700
C597        C  0.88954936  0.88266654  0.68685096    -0.18600
C598        C  0.92353016  0.90112337  0.67310483     0.03800
C599        C  0.91188296  0.92280945  0.64004361     0.18000
C600        C  0.86703642  0.92665947  0.62483339    -0.20000
C601        C  0.94486714  0.94093627  0.62358126    -0.21200
C602        C  0.98884936  0.93859884  0.64075464    -0.19800
C603        C  0.00070635  0.91836897  0.67549475     0.19400
C604        C  0.96832053  0.89920043  0.69197465     0.01500
C605        C  0.98174456  0.87963929  0.72823284    -0.14500
C606        C  0.02506390  0.87968510  0.74835096    -0.12200
C607        C  0.05662061  0.89879872  0.73240586     0.01100
C608        C  0.04447924  0.91773828  0.69515082    -0.24400
H609        H  0.82036886  0.87230000  0.68426473     0.09100
H610        H  0.89573144  0.86513139  0.71008435     0.12600
H611        H  0.85820264  0.94376853  0.60109035     0.13000
H612        H  0.93645310  0.95729114  0.59787631     0.12600
H613        H  0.01349231  0.95319873  0.62787724     0.11600
H614        H  0.95928758  0.86450582  0.74303432     0.08700
H615        H  0.03377051  0.86480467  0.77690220     0.11900
H616        H  0.06866763  0.93277058  0.68283856     0.13800
C617        C  0.19541861  0.82588879  0.81639149    -0.01700
C618        C  0.20005933  0.81218779  0.86272019    -0.09700
C619        C  0.20254446  0.78386066  0.86436799    -0.18600
C620        C  0.20022803  0.76810164  0.81943921     0.03800
C621        C  0.19649633  0.78211979  0.77246184     0.18000
C622        C  0.19430292  0.81057758  0.77136280    -0.20000
C623        C  0.19427059  0.76765793  0.72675318    -0.21200
C624        C  0.19510434  0.73951633  0.72658962    -0.19800
C625        C  0.19806014  0.72501523  0.77213852     0.19400
C626        C  0.20087367  0.73903069  0.81928278     0.01500
C627        C  0.20346458  0.72326062  0.86407829    -0.14500
C628        C  0.20238924  0.69491495  0.86213167    -0.12200
C629        C  0.19897291  0.68117011  0.81562308     0.01100
C630        C  0.19740704  0.69651243  0.77072719    -0.24400
H631        H  0.20117350  0.82339186  0.89808361     0.09100
H632        H  0.20581869  0.77487507  0.90146491     0.12600
H633        H  0.19078973  0.82079802  0.73514129     0.11400
H634        H  0.19150046  0.77819997  0.69079151     0.12600
H635        H  0.19296092  0.72899768  0.69050928     0.11600
H636        H  0.20572027  0.73224219  0.90131189     0.08700
H637        H  0.20358112  0.68371255  0.89745015     0.11900
H638        H  0.19458720  0.68626884  0.73441345     0.13800
C639        C  0.24612054  0.07156980  0.47868752    -0.01700
C640        C  0.26702676  0.07792260  0.52491391    -0.09700
C641        C  0.25614227  0.06358849  0.56943950    -0.18600
C642        C  0.22541097  0.04162610  0.56829294     0.03800
C643        C  0.20447600  0.03553287  0.52119784     0.18000
C644        C  0.21354738  0.05104312  0.47806213    -0.20000
C645        C  0.17638961  0.01298999  0.51630890    -0.21200
C646        C  0.16998344  0.99552370  0.55678622    -0.19800
C647        C  0.18985213  0.00083407  0.60380472     0.19400
C648        C  0.21630023  0.02454834  0.61107681     0.01500
C649        C  0.23279985  0.02971824  0.66057820    -0.14500
C650        C  0.22523370  0.01133047  0.70026504    -0.12200
C651        C  0.20198449  0.98710819  0.69144380     0.01100
C652        C  0.18392686  0.98220195  0.64338011    -0.24400
H653        H  0.29268736  0.09343046  0.52636296     0.09100
H654        H  0.27400441  0.06910632  0.60356136     0.12600
H655        H  0.19750407  0.04547785  0.44255779     0.11400
H656        H  0.16062717  0.00821609  0.48026721     0.12600
H657        H  0.14938780  0.97767793  0.55122313     0.11600
H658        H  0.25161778  0.04775445  0.66954011     0.08700
H659        H  0.23925135  0.01549651  0.73744115     0.11900
H660        H  0.16534923  0.96364079  0.63674584     0.13800
C661        C  0.27567823  0.02195569  0.19098705    -0.01700
C662        C  0.24172653  0.00254209  0.19579133    -0.09700
C663        C  0.23334153  0.98389080  0.15680865    -0.18600
C664        C  0.25936880  0.98384579  0.11183846     0.03800
C665        C  0.29550994  0.00268130  0.10866488     0.18000
C666        C  0.30274061  0.02179586  0.14758221    -0.20000
C667        C  0.32374732  0.00266214  0.06622972    -0.21200
C668        C  0.31615950  0.98493743  0.02610793    -0.19800
C669        C  0.27941106  0.96725259  0.02670728     0.19400
C670        C  0.25044536  0.96629131  0.06951106     0.01500
C671        C  0.21284918  0.94870094  0.06687809    -0.14500
C672        C  0.20315528  0.93398132  0.02248214    -0.12200
C673        C  0.23116085  0.93571706  0.97981156     0.01100
C674        C  0.27027466  0.95158342  0.98338489    -0.24400
H675        H  0.22052611  0.00240589  0.22923951     0.09100
H676        H  0.20619458  0.96983469  0.16282323     0.12600
H677        H  0.32929629  0.03669822  0.14403714     0.11400
H678        H  0.35167452  0.01666466  0.06380039     0.12600
H679        H  0.33837461  0.98572985  0.99352611     0.11600
H680        H  0.18912907  0.94691810  0.09760855     0.08700
H681        H  0.17255285  0.92218055  0.02081801     0.11900
H682        H  0.29232347  0.95335899  0.95077527     0.13800
C683        C  0.08307198  0.97217589  0.90015515    -0.01700
C684        C  0.09284855  0.99498147  0.92966424    -0.09700
C685        C  0.05905616  0.00780344  0.95776299    -0.18600
C686        C  0.01426800  0.99801429  0.95734244     0.03800
C687        C  0.00449764  0.97525295  0.92637307     0.18000
C688        C  0.03856907  0.96275487  0.89826299    -0.20000
C689        C  0.96079781  0.96489261  0.92374376    -0.21200
C690        C  0.92607730  0.97702235  0.95059323    -0.19800
C691        C  0.93430164  0.99961981  0.98118295     0.19400
C692        C  0.97869046  0.01011508  0.98583580     0.01500
C693        C  0.98539230  0.03240363  0.01847904    -0.14500
C694        C  0.94927800  0.04475539  0.04277638    -0.12200
C695        C  0.90521891  0.03536786  0.03569746     0.01100
C696        C  0.89813872  0.01223525  0.00609518    -0.24400
H697        H  0.12688898  0.00258976  0.93197920     0.09100
H698        H  0.06912952  0.02524002  0.97955480     0.12600
H699        H  0.03032564  0.94515705  0.87543551     0.11400
H700        H  0.95330762  0.94742136  0.90028886     0.12600
H701        H  0.89248873  0.96878838  0.94709211     0.11600
H702        H  0.01801705  0.04104106  0.02549862     0.08700
H703        H  0.95590562  0.06233866  0.06624802     0.11900
H704        H  0.86426980  0.00473232  0.00060633     0.13800
loop_ 
_geom_bond_atom_site_label_1 
_geom_bond_atom_site_label_2 
_geom_bond_distance 
_geom_bond_site_symmetry_2 
_ccdc_geom_bond_type 
O1          Cr19   1.961       .  S
O1            C9   1.259       .  A
O2          Cr19   2.010       .  S
O2            C3   1.265       .  A
C3            O4   1.258       .  A
C3          C651   1.475       .  S
O4          Cr20   1.977       .  S
O5          Cr20   2.041       .  S
O5            C6   1.275       .  A
C6            O7   1.256       .  A
C6          C683   1.482       .  S
O7          Cr21   1.947       .  S
O8          Cr21   2.027       .  S
O8            C9   1.272       .  A
C9          C607   1.476       .  S
O10         Cr19   2.018       .  S
O10          C18   1.269       .  A
O11         Cr19   1.951       .  S
O11          C12   1.259       .  A
C12          O13   1.272       .  A
C12         C573   1.475       .  S
O13         Cr20   2.021       .  S
O14         Cr20   1.956       .  S
O14          C15   1.251       .  A
C15          O16   1.270       .  A
C15         C673   1.492       .  S
O16         Cr21   2.045       .  S
O17         Cr21   1.990       .  S
O17          C18   1.265       .  A
C18         C617   1.492       .  S
Cr19         O22   1.761       .  S
Cr20         O22   1.768       .  S
Cr21         O22   1.768       .  S
O23         Cr41   2.016       .  S
O23          C31   1.268       .  A
O24         Cr41   1.953       .  S
O24          C25   1.257       .  A
C25          O26   1.274       .  A
C25         C463   1.479       .  S
O26         Cr42   2.042       .  S
O27         Cr42   1.980       .  S
O27          C28   1.258       .  A
C28          O29   1.265       .  A
C28         C551   1.476       .  S
O29         Cr43   2.015       .  S
O30         Cr43   1.955       .  S
O30          C31   1.256       .  A
C31         C485   1.465       .  S
O32         Cr41   1.985       .  S
O32          C40   1.264       .  A
O33         Cr41   2.026       .  S
O33          C34   1.267       .  A
C34          O35   1.254       .  A
C34         C541   1.484       .  S
O35         Cr42   1.970       .  S
O36         Cr42   2.022       .  S
O36          C37   1.272       .  A
C37          O38   1.258       .  A
C37         C507   1.470       .  S
O38         Cr43   1.945       .  S
O39         Cr43   2.027       .  S
O39          C40   1.271       .  A
C40         C629   1.493       .  S
Cr41         O44   1.768       .  S
Cr42         O44   1.770       .  S
Cr43         O44   1.764       .  S
O45         Cr63   2.016       .  S
O45          C53   1.266       .  A
O46         Cr63   1.949       .  S
O46          C47   1.258       .  A
C47          O48   1.279       .  A
C47         C375   1.485       .  S
O48         Cr64   2.055       .  S
O49         Cr64   1.986       .  S
O49          C50   1.260       .  A
C50          O51   1.265       .  A
C50         C453   1.481       .  S
O51         Cr65   2.009       .  S
O52         Cr65   1.966       .  S
O52          C53   1.257       .  A
C53         C585   1.467       .  S
O54         Cr63   1.982       .  S
O54          C62   1.264       .  A
O55         Cr63   2.024       .  S
O55          C56   1.265       .  A
C56          O57   1.253       .  A
C56         C431   1.479       .  S
O57         Cr64   1.974       .  S
O58         Cr64   2.031       .  S
O58          C59   1.274       .  A
C59          O60   1.257       .  A
C59         C595   1.479       .  S
O60         Cr65   1.947       .  S
O61         Cr65   2.018       .  S
O61          C62   1.271       .  A
C62         C397   1.486       .  S
Cr63         O66   1.771       .  S
Cr64         O66   1.770       .  S
Cr65         O66   1.761       .  S
O67         Cr85   1.958       .  S
O67          C75   1.260       .  A
O68         Cr85   2.015       .  S
O68          C69   1.264       .  A
C69          O70   1.257       .  A
C69         C321   1.472       .  S
O70         Cr86   1.984       .  S
O71         Cr86   2.039       .  S
O71          C72   1.272       .  A
C72          O73   1.255       .  A
C72         C353   1.479       .  S
O73         Cr87   1.951       .  S
O74         Cr87   2.016       .  S
O74          C75   1.271       .  A
C75         C519   1.470       .  S
O76         Cr85   2.009       .  S
O76          C84   1.267       .  A
O77         Cr85   1.944       .  S
O77          C78   1.258       .  A
C78          O79   1.275       .  A
C78         C497   1.473       .  S
O79         Cr86   2.031       .  S
O80         Cr86   1.956       .  S
O80          C81   1.254       .  A
C81          O82   1.269       .  A
C81         C343   1.486       .  S
O82         Cr87   2.034       .  S
O83         Cr87   1.986       .  S
O83          C84   1.263       .  A
C84         C409   1.485       .  S
Cr85         O88   1.761       .  S
Cr86         O88   1.761       .  S
Cr87         O88   1.764       .  S
O89        Cr107   1.965       .  S
O89          C97   1.256       .  A
O90        Cr107   2.008       .  S
O90          C91   1.265       .  A
C91          O92   1.258       .  A
C91         C331   1.470       .  S
O92        Cr108   1.977       .  S
O93        Cr108   2.042       .  S
O93          C94   1.276       .  A
C94          O95   1.257       .  A
C94         C475   1.481       .  S
O95        Cr109   1.957       .  S
O96        Cr109   2.006       .  S
O96          C97   1.266       .  A
C97         C277   1.468       .  S
O98        Cr107   2.024       .  S
O98         C106   1.271       .  A
O99        Cr107   1.951       .  S
O99         C100   1.259       .  A
C100        O101   1.272       .  A
C100        C243   1.475       .  S
O101       Cr108   2.022       .  S
O102       Cr108   1.969       .  S
O102        C103   1.254   1_554  A
C103        O104   1.266       .  A
C103        C309   1.478       .  S
O104       Cr109   2.021   1_556  S
O105       Cr109   1.978       .  S
O105        C106   1.263       .  A
C106        C299   1.488       .  S
Cr107       O110   1.763       .  S
Cr108       O110   1.767       .  S
Cr109       O110   1.767       .  S
O111       Cr129   2.013       .  S
O111        C119   1.271       .  A
O112       Cr129   1.949       .  S
O112        C113   1.255       .  A
C113        O114   1.271       .  A
C113        C695   1.479       .  S
O114       Cr130   2.030       .  S
O115       Cr130   1.990       .  S
O115        C116   1.258       .  A
C116        O117   1.263       .  A
C116        C419   1.479       .  S
O117       Cr131   2.012       .  S
O118       Cr131   1.962       .  S
O118        C119   1.260       .  A
C119        C199   1.470       .  S
O120       Cr129   1.991       .  S
O120        C128   1.266       .  A
O121       Cr129   2.044       .  S
O121        C122   1.270   1_554  A
C122        O123   1.255   1_556  A
C122        C441   1.496       .  S
O123       Cr130   1.960       .  S
O124       Cr130   2.022       .  S
O124        C125   1.273       .  A
C125        O126   1.260       .  A
C125        C221   1.461       .  S
O126       Cr131   1.945       .  S
O127       Cr131   2.011       .  S
O127        C128   1.267       .  A
C128        C287   1.489       .  S
Cr129       O132   1.769       .  S
Cr130       O132   1.764       .  S
Cr131       O132   1.764       .  S
O133       Cr151   2.022       .  S
O133        C141   1.272       .  A
O134       Cr151   1.954       .  S
O134        C135   1.255       .  A
C135        O136   1.274       .  A
C135        C365   1.481       .  S
O136       Cr152   2.038       .  S
O137       Cr152   1.985       .  S
O137        C138   1.258       .  A
C138        O139   1.265       .  A
C138        C529   1.474       .  S
O139       Cr153   2.019       .  S
O140       Cr153   1.955       .  S
O140        C141   1.259       .  A
C141        C255   1.471       .  S
O142       Cr151   1.986       .  S
O142        C150   1.263       .  A
O143       Cr151   2.042       .  S
O143        C144   1.271       .  A
C144        O145   1.254       .  A
C144        C563   1.491       .  S
O145       Cr152   1.958       .  S
O146       Cr152   2.034       .  S
O146        C147   1.274       .  A
C147        O148   1.257       .  A
C147        C265   1.473       .  S
O148       Cr153   1.940       .  S
O149       Cr153   2.018       .  S
O149        C150   1.269       .  A
C150        C177   1.490       .  S
Cr151       O154   1.766       .  S
Cr152       O154   1.763       .  S
Cr153       O154   1.759       .  S
O155       Cr173   1.947       .  S
O155        C163   1.256       .  A
O156       Cr173   2.017       .  S
O156        C157   1.266       .  A
C157        O158   1.258       .  A
C157        C661   1.477       .  S
O158       Cr174   1.979       .  S
O159       Cr174   2.046       .  S
O159        C160   1.275       .  A
C160        O161   1.255       .  A
C160        C387   1.484       .  S
O161       Cr175   1.951       .  S
O162       Cr175   2.012       .  S
O162        C163   1.269       .  A
C163        C233   1.467       .  S
O164       Cr173   2.019       .  S
O164        C172   1.270       .  A
O165       Cr173   1.946       .  S
O165        C166   1.259       .  A
C166        O167   1.272       .  A
C166        C211   1.467       .  S
O167       Cr174   2.022       .  S
O168       Cr174   1.954       .  S
O168        C169   1.251       .  A
C169        O170   1.268       .  A
C169        C639   1.486       .  S
O170       Cr175   2.039       .  S
O171       Cr175   1.988       .  S
O171        C172   1.265       .  A
C172        C189   1.492       .  S
Cr173       O176   1.763       .  S
Cr174       O176   1.763       .  S
Cr175       O176   1.774       .  S
C177        C178   1.403       .  A
C177        C182   1.404       .  A
C178        C179   1.402       .  A
C178        H191   1.083       .  S
C179        C180   1.416       .  A
C179        H192   1.078       .  S
C180        C186   1.436       .  A
C180        C181   1.423       .  A
C181        C183   1.399       .  A
C181        C182   1.407       .  A
C182        H193   1.084       .  S
C183        C184   1.389       .  A
C183        H194   1.084       .  S
C184        C185   1.400       .  A
C184        H195   1.084       .  S
C185        C186   1.422       .  A
C185        C190   1.407       .  A
C186        C187   1.417       .  A
C187        C188   1.403       .  A
C187        H196   1.078       .  S
C188        C189   1.403       .  A
C188        H197   1.083       .  S
C189        C190   1.405       .  A
C190        H198   1.084       .  S
C199        C200   1.397       .  A
C199        C204   1.403       .  A
C200        C201   1.388   1_655  A
C200        H213   1.083       .  S
C201        C202   1.414       .  A
C201        H214   1.076       .  S
C202        C208   1.422       .  A
C202        C203   1.420   1_455  A
C203        C205   1.400       .  A
C203        C204   1.402       .  A
C204        H215   1.085       .  S
C205        C206   1.391   1_655  A
C205        H216   1.084       .  S
C206        C207   1.399       .  A
C206        H217   1.084       .  S
C207        C208   1.424       .  A
C207        C212   1.406       .  A
C208        C209   1.411       .  A
C209        C210   1.385       .  A
C209        H218   1.076       .  S
C210        C211   1.398       .  A
C210        H219   1.084       .  S
C211        C212   1.399       .  A
C212        H220   1.085       .  S
C221        C222   1.395       .  A
C221        C226   1.398       .  A
C222        C223   1.395       .  A
C222        H235   1.083       .  S
C223        C224   1.418       .  A
C223        H236   1.077       .  S
C224        C230   1.422       .  A
C224        C225   1.420       .  A
C225        C227   1.398       .  A
C225        C226   1.394       .  A
C226        H237   1.085       .  S
C227        C228   1.385       .  A
C227        H238   1.084       .  S
C228        C229   1.397       .  A
C228        H239   1.084       .  S
C229        C230   1.424       .  A
C229        C234   1.399       .  A
C230        C231   1.411       .  A
C231        C232   1.389       .  A
C231        H240   1.077       .  S
C232        C233   1.401       .  A
C232        H241   1.084       .  S
C233        C234   1.397       .  A
C234        H242   1.085       .  S
C243        C244   1.398       .  A
C243        C248   1.402       .  A
C244        C245   1.397       .  A
C244        H257   1.083       .  S
C245        C246   1.417       .  A
C245        H258   1.077       .  S
C246        C252   1.426       .  A
C246        C247   1.420       .  A
C247        C249   1.399       .  A
C247        C248   1.397       .  A
C248        H259   1.085       .  S
C249        C250   1.386       .  A
C249        H260   1.084       .  S
C250        C251   1.397       .  A
C250        H261   1.084       .  S
C251        C252   1.424       .  A
C251        C256   1.401       .  A
C252        C253   1.412       .  A
C253        C254   1.393       .  A
C253        H262   1.077       .  S
C254        C255   1.401       .  A
C254        H263   1.084       .  S
C255        C256   1.397       .  A
C256        H264   1.085       .  S
C265        C266   1.401       .  A
C265        C270   1.401       .  A
C266        C267   1.383       .  A
C266        H279   1.084       .  S
C267        C268   1.408       .  A
C267        H280   1.075       .  S
C268        C274   1.422       .  A
C268        C269   1.424       .  A
C269        C271   1.400       .  A
C269        C270   1.408       .  A
C270        H281   1.084       .  S
C271        C272   1.392   1_455  A
C271        H282   1.084       .  S
C272        C273   1.401       .  A
C272        H283   1.084       .  S
C273        C274   1.420   1_655  A
C273        C278   1.403       .  A
C274        C275   1.415   1_455  A
C275        C276   1.388       .  A
C275        H284   1.075   1_655  S
C276        C277   1.395       .  A
C276        H285   1.084       .  S
C277        C278   1.403       .  A
C278        H286   1.085       .  S
C287        C288   1.401       .  A
C287        C292   1.405       .  A
C288        C289   1.402       .  A
C288        H301   1.083       .  S
C289        C290   1.418       .  A
C289        H302   1.077       .  S
C290        C296   1.435       .  A
C290        C291   1.421       .  A
C291        C293   1.400       .  A
C291        C292   1.405       .  A
C292        H303   1.084       .  S
C293        C294   1.389       .  A
C293        H304   1.084       .  S
C294        C295   1.399       .  A
C294        H305   1.084       .  S
C295        C296   1.423       .  A
C295        C300   1.407       .  A
C296        C297   1.415       .  A
C297        C298   1.400       .  A
C297        H306   1.077       .  S
C298        C299   1.402       .  A
C298        H307   1.083       .  S
C299        C300   1.403       .  A
C300        H308   1.084       .  S
C309        C310   1.401       .  A
C309        C314   1.401       .  A
C310        C311   1.400       .  A
C310        H323   1.084       .  S
C311        C312   1.416       .  A
C311        H324   1.077       .  S
C312        C318   1.433       .  A
C312        C313   1.423       .  A
C313        C315   1.399       .  A
C313        C314   1.404       .  A
C314        H325   1.085       .  S
C315        C316   1.388       .  A
C315        H326   1.084       .  S
C316        C317   1.399       .  A
C316        H327   1.084       .  S
C317        C318   1.423       .  A
C317        C322   1.404       .  A
C318        C319   1.418       .  A
C319        C320   1.402       .  A
C319        H328   1.077       .  S
C320        C321   1.397       .  A
C320        H329   1.083       .  S
C321        C322   1.398       .  A
C322        H330   1.085       .  S
C331        C332   1.399       .  A
C331        C336   1.395       .  A
C332        C333   1.400       .  A
C332        H345   1.084       .  S
C333        C334   1.416       .  A
C333        H346   1.078       .  S
C334        C340   1.433       .  A
C334        C335   1.425       .  A
C335        C337   1.397       .  A
C335        C336   1.404       .  A
C336        H347   1.085       .  S
C337        C338   1.387       .  A
C337        H348   1.084       .  S
C338        C339   1.400       .  A
C338        H349   1.084       .  S
C339        C340   1.420       .  A
C339        C344   1.400       .  A
C340        C341   1.419       .  A
C341        C342   1.404       .  A
C341        H350   1.078       .  S
C342        C343   1.401       .  A
C342        H351   1.083       .  S
C343        C344   1.405       .  A
C344        H352   1.085       .  S
C353        C354   1.402       .  A
C353        C358   1.401       .  A
C354        C355   1.392       .  A
C354        H367   1.084       .  S
C355        C356   1.411       .  A
C355        H368   1.077       .  S
C356        C362   1.430       .  A
C356        C357   1.425       .  A
C357        C359   1.399       .  A
C357        C358   1.410       .  A
C358        H369   1.084       .  S
C359        C360   1.392       .  A
C359        H370   1.084       .  S
C360        C361   1.401       .  A
C360        H371   1.084       .  S
C361        C362   1.419       .  A
C361        C366   1.404       .  A
C362        C363   1.418       .  A
C363        C364   1.399       .  A
C363        H372   1.077       .  S
C364        C365   1.398       .  A
C364        H373   1.083       .  S
C365        C366   1.406       .  A
C366        H374   1.085       .  S
C375        C376   1.406       .  A
C375        C380   1.401       .  A
C376        C377   1.394       .  A
C376        H389   1.084       .  S
C377        C378   1.410       .  A
C377        H390   1.078       .  S
C378        C384   1.432   1_565  A
C378        C379   1.426   1_565  A
C379        C381   1.399       .  A
C379        C380   1.411   1_545  A
C380        H391   1.084       .  S
C381        C382   1.391       .  A
C381        H392   1.084       .  S
C382        C383   1.401       .  A
C382        H393   1.084       .  S
C383        C384   1.419       .  A
C383        C388   1.403       .  A
C384        C385   1.420   1_545  A
C385        C386   1.402   1_565  A
C385        H394   1.077       .  S
C386        C387   1.399       .  A
C386        H395   1.083       .  S
C387        C388   1.407       .  A
C388        H396   1.085       .  S
C397        C398   1.402       .  A
C397        C402   1.403       .  A
C398        C399   1.401       .  A
C398        H411   1.083       .  S
C399        C400   1.416       .  A
C399        H412   1.078       .  S
C400        C406   1.433       .  A
C400        C401   1.422       .  A
C401        C403   1.399       .  A
C401        C402   1.403       .  A
C402        H413   1.084       .  S
C403        C404   1.388       .  A
C403        H414   1.084       .  S
C404        C405   1.399       .  A
C404        H415   1.084       .  S
C405        C406   1.422       .  A
C405        C410   1.403       .  A
C406        C407   1.417       .  A
C407        C408   1.401       .  A
C407        H416   1.078       .  S
C408        C409   1.402       .  A
C408        H417   1.083       .  S
C409        C410   1.403       .  A
C410        H418   1.085       .  S
C419        C420   1.399       .  A
C419        C424   1.401       .  A
C420        C421   1.404   1_545  A
C420        H433   1.083       .  S
C421        C422   1.419       .  A
C421        H434   1.078       .  S
C422        C428   1.434       .  A
C422        C423   1.422   1_565  A
C423        C425   1.400       .  A
C423        C424   1.404       .  A
C424        H435   1.085       .  S
C425        C426   1.389   1_545  A
C425        H436   1.084       .  S
C426        C427   1.399       .  A
C426        H437   1.084       .  S
C427        C428   1.424       .  A
C427        C432   1.406       .  A
C428        C429   1.416       .  A
C429        C430   1.402       .  A
C429        H438   1.078       .  S
C430        C431   1.401       .  A
C430        H439   1.083       .  S
C431        C432   1.401       .  A
C432        H440   1.085       .  S
C441        C442   1.405       .  A
C441        C446   1.405       .  A
C442        C443   1.411       .  A
C442        H455   1.083       .  S
C443        C444   1.420       .  A
C443        H456   1.079       .  S
C444        C450   1.439       .  A
C444        C445   1.420       .  A
C445        C447   1.399       .  A
C445        C446   1.401       .  A
C446        H457   1.084       .  S
C447        C448   1.386   1_545  A
C447        H458   1.084       .  S
C448        C449   1.397   1_565  A
C448        H459   1.084       .  S
C449        C450   1.425       .  A
C449        C454   1.405   1_545  A
C450        C451   1.417       .  A
C451        C452   1.407       .  A
C451        H460   1.079       .  S
C452        C453   1.403   1_545  A
C452        H461   1.083       .  S
C453        C454   1.396       .  A
C454        H462   1.085       .  S
C463        C464   1.402       .  A
C463        C468   1.401       .  A
C464        C465   1.393       .  A
C464        H477   1.084       .  S
C465        C466   1.412       .  A
C465        H478   1.077   1_455  S
C466        C472   1.431   1_455  A
C466        C467   1.425       .  A
C467        C469   1.399   1_556  A
C467        C468   1.410       .  A
C468        H479   1.085       .  S
C469        C470   1.392       .  A
C469        H480   1.084       .  S
C470        C471   1.401   1_455  A
C470        H481   1.084       .  S
C471        C472   1.420   1_554  A
C471        C476   1.405       .  A
C472        C473   1.418       .  A
C473        C474   1.399       .  A
C473        H482   1.077       .  S
C474        C475   1.398   1_556  A
C474        H483   1.083       .  S
C475        C476   1.405       .  A
C476        H484   1.085       .  S
C485        C486   1.396       .  A
C485        C490   1.401       .  A
C486        C487   1.393   1_455  A
C486        H499   1.084       .  S
C487        C488   1.416       .  A
C487        H500   1.077       .  S
C488        C494   1.422       .  A
C488        C489   1.419   1_655  A
C489        C491   1.400   1_455  A
C489        C490   1.398       .  A
C490        H501   1.085       .  S
C491        C492   1.390       .  A
C491        H502   1.084   1_655  S
C492        C493   1.398       .  A
C492        H503   1.084       .  S
C493        C494   1.423       .  A
C493        C498   1.404       .  A
C494        C495   1.409       .  A
C495        C496   1.387       .  A
C495        H504   1.078       .  S
C496        C497   1.403       .  A
C496        H505   1.083       .  S
C497        C498   1.399       .  A
C498        H506   1.084       .  S
C507        C508   1.397       .  A
C507        C512   1.401       .  A
C508        C509   1.396       .  A
C508        H521   1.083       .  S
C509        C510   1.417       .  A
C509        H522   1.077       .  S
C510        C516   1.424       .  A
C510        C511   1.420       .  A
C511        C513   1.399       .  A
C511        C512   1.396       .  A
C512        H523   1.085       .  S
C513        C514   1.386       .  A
C513        H524   1.084       .  S
C514        C515   1.397       .  A
C514        H525   1.084       .  S
C515        C516   1.423       .  A
C515        C520   1.400       .  A
C516        C517   1.412       .  A
C517        C518   1.392       .  A
C517        H526   1.077       .  S
C518        C519   1.401       .  A
C518        H527   1.083       .  S
C519        C520   1.398       .  A
C520        H528   1.085       .  S
C529        C530   1.398       .  A
C529        C534   1.399       .  A
C530        C531   1.403       .  A
C530        H543   1.083       .  S
C531        C532   1.419       .  A
C531        H544   1.078       .  S
C532        C538   1.435       .  A
C532        C533   1.423       .  A
C533        C535   1.399       .  A
C533        C534   1.406       .  A
C534        H545   1.085       .  S
C535        C536   1.390       .  A
C535        H546   1.084       .  S
C536        C537   1.399       .  A
C536        H547   1.084       .  S
C537        C538   1.424       .  A
C537        C542   1.407       .  A
C538        C539   1.416       .  A
C539        C540   1.401   1_554  A
C539        H548   1.078       .  S
C540        C541   1.403       .  A
C540        H549   1.083       .  S
C541        C542   1.402   1_556  A
C542        H550   1.085       .  S
C551        C552   1.400       .  A
C551        C556   1.398       .  A
C552        C553   1.401       .  A
C552        H565   1.084       .  S
C553        C554   1.415       .  A
C553        H566   1.078       .  S
C554        C560   1.435       .  A
C554        C555   1.425       .  A
C555        C557   1.398       .  A
C555        C556   1.408       .  A
C556        H567   1.085       .  S
C557        C558   1.389       .  A
C557        H568   1.084       .  S
C558        C559   1.400       .  A
C558        H569   1.084       .  S
C559        C560   1.420       .  A
C559        C564   1.402       .  A
C560        C561   1.419       .  A
C561        C562   1.406       .  A
C561        H570   1.078       .  S
C562        C563   1.402       .  A
C562        H571   1.083       .  S
C563        C564   1.406       .  A
C564        H572   1.085       .  S
C573        C574   1.402       .  A
C573        C578   1.400       .  A
C574        C575   1.389       .  A
C574        H587   1.083       .  S
C575        C576   1.411       .  A
C575        H588   1.077       .  S
C576        C582   1.424       .  A
C576        C577   1.423       .  A
C577        C579   1.399       .  A
C577        C578   1.404       .  A
C578        H589   1.084       .  S
C579        C580   1.390       .  A
C579        H590   1.084       .  S
C580        C581   1.400       .  A
C580        H591   1.084       .  S
C581        C582   1.421       .  A
C581        C586   1.401       .  A
C582        C583   1.416       .  A
C583        C584   1.393       .  A
C583        H592   1.077       .  S
C584        C585   1.396       .  A
C584        H593   1.084       .  S
C585        C586   1.400       .  A
C586        H594   1.085       .  S
C595        C596   1.404       .  A
C595        C600   1.400       .  A
C596        C597   1.390       .  A
C596        H609   1.083       .  S
C597        C598   1.410       .  A
C597        H610   1.077       .  S
C598        C604   1.427       .  A
C598        C599   1.424       .  A
C599        C601   1.399       .  A
C599        C600   1.407       .  A
C600        H611   1.084       .  S
C601        C602   1.391       .  A
C601        H612   1.084       .  S
C602        C603   1.401   1_655  A
C602        H613   1.084   1_655  S
C603        C604   1.420   1_455  A
C603        C608   1.403       .  A
C604        C605   1.417       .  A
C605        C606   1.395   1_655  A
C605        H614   1.077       .  S
C606        C607   1.397       .  A
C606        H615   1.083       .  S
C607        C608   1.404       .  A
C608        H616   1.085       .  S
C617        C618   1.402       .  A
C617        C622   1.406       .  A
C618        C619   1.402       .  A
C618        H631   1.083       .  S
C619        C620   1.417       .  A
C619        H632   1.077       .  S
C620        C626   1.437       .  A
C620        C621   1.422       .  A
C621        C623   1.400       .  A
C621        C622   1.408       .  A
C622        H633   1.084       .  S
C623        C624   1.391       .  A
C623        H634   1.084       .  S
C624        C625   1.400       .  A
C624        H635   1.084       .  S
C625        C626   1.423       .  A
C625        C630   1.409       .  A
C626        C627   1.416       .  A
C627        C628   1.402       .  A
C627        H636   1.077       .  S
C628        C629   1.403       .  A
C628        H637   1.083       .  S
C629        C630   1.405       .  A
C630        H638   1.084       .  S
C639        C640   1.402       .  A
C639        C644   1.404       .  A
C640        C641   1.408       .  A
C640        H653   1.083       .  S
C641        C642   1.420       .  A
C641        H654   1.079       .  S
C642        C648   1.434       .  A
C642        C643   1.419       .  A
C643        C645   1.399       .  A
C643        C644   1.397       .  A
C644        H655   1.085       .  S
C645        C646   1.385   1_545  A
C645        H656   1.084       .  S
C646        C647   1.396   1_565  A
C646        H657   1.084       .  S
C647        C648   1.425       .  A
C647        C652   1.402   1_545  A
C648        C649   1.415       .  A
C649        C650   1.403       .  A
C649        H658   1.079       .  S
C650        C651   1.402   1_545  A
C650        H659   1.083       .  S
C651        C652   1.396       .  A
C652        H660   1.085       .  S
C661        C662   1.400       .  A
C661        C666   1.398       .  A
C662        C663   1.401   1_545  A
C662        H675   1.084       .  S
C663        C664   1.415       .  A
C663        H676   1.078       .  S
C664        C670   1.436       .  A
C664        C665   1.426   1_565  A
C665        C667   1.398       .  A
C665        C666   1.409       .  A
C666        H677   1.085       .  S
C667        C668   1.390   1_545  A
C667        H678   1.084       .  S
C668        C669   1.401       .  A
C668        H679   1.084   1_554  S
C669        C670   1.420       .  A
C669        C674   1.404   1_554  A
C670        C671   1.419       .  A
C671        C672   1.406       .  A
C671        H680   1.078       .  S
C672        C673   1.402   1_554  A
C672        H681   1.083       .  S
C673        C674   1.407       .  A
C674        H682   1.084       .  S
C683        C684   1.399       .  A
C683        C688   1.406       .  A
C684        C685   1.400   1_565  A
C684        H697   1.083   1_565  S
C685        C686   1.419   1_545  A
C685        H698   1.077       .  S
C686        C692   1.429   1_465  A
C686        C687   1.418       .  A
C687        C689   1.400   1_455  A
C687        C688   1.399       .  A
C688        H699   1.085       .  S
C689        C690   1.388       .  A
C689        H700   1.084       .  S
C690        C691   1.398       .  A
C690        H701   1.084       .  S
C691        C692   1.426   1_565  A
C691        C696   1.407   1_566  A
C692        C693   1.410   1_556  A
C693        C694   1.392       .  A
C693        H702   1.077   1_655  S
C694        C695   1.404       .  A
C694        H703   1.084       .  S
C695        C696   1.399       .  A
C696        H704   1.084       .  S
