geometry optimzed in LAMMPS
_audit_creation_date              2020-11-30 
_audit_creation_method            'lammps2cif' 
_symmetry_space_group_name_H-M    'P1' 
_symmetry_Int_Tables_number       1 
_symmetry_cell_setting            triclinic 
loop_ 
_symmetry_equiv_pos_as_xyz 
  x,y,z 
_cell_length_a                    43.61867761 
_cell_length_b                    35.235274726196714 
_cell_length_c                    38.69180464433836 
_cell_angle_alpha                 90.01648708186528 
_cell_angle_beta                  89.99153030470423 
_cell_angle_gamma                 90.01018035706456 
loop_ 
_atom_site_label 
_atom_site_type_symbol 
_atom_site_fract_x 
_atom_site_fract_y 
_atom_site_fract_z 
_atom_site_charge 
O1          O  0.15142794  0.95571513  0.38676504    -0.83600
C2          C  0.03779734  0.89562810  0.36717631     0.95800
O3          O  0.05806776  0.91089342  0.34862744    -0.72700
O4          O  0.10518213  0.95394311  0.33379945    -0.76300
Al5        Al  0.10017396  0.90584537  0.35638947     1.49000
C6          C  0.10096001  0.98779945  0.34323110     0.91000
O7          O  0.07736371  0.98392264  0.43933783    -0.82500
O8          O  0.09550327  0.91259272  0.47091593    -0.76100
Al9        Al  0.11327202  0.96668536  0.41148728     1.90100
O10         O  0.04567301  0.93559884  0.43481333    -0.75100
O11         O  0.10007017  0.85414370  0.42527401    -0.75000
O12         O  0.04524120  0.87795897  0.39457578    -0.80600
O13         O  0.09717392  0.85263025  0.36867626    -0.78800
O14         O  0.09582662  0.92355977  0.39905046    -1.15000
O15         O  0.14201745  0.90053476  0.36172283    -0.74200
C16         C  0.16063661  0.92546715  0.37182969     0.96500
C17         C  0.05077268  0.96918967  0.44373085     0.92900
Al18       Al  0.07368990  0.89689869  0.42905119     1.55600
O19         O  0.09689379  0.99559119  0.37456649    -0.78800
C20         C  0.10208263  0.83590737  0.39721811     0.97100
C21         C  0.12005657  0.93125064  0.47492235     0.92000
O22         O  0.13328749  0.94475197  0.44908616    -0.84100
O23         O  0.13275970  0.56336263  0.44864295    -0.83600
C24         C  0.03859563  0.61263068  0.36561164     0.95800
O25         O  0.04561657  0.63027959  0.39319889    -0.72700
O26         O  0.04534218  0.57263234  0.43329276    -0.76300
Al27       Al  0.07351630  0.61126470  0.42821661     1.49000
C28         C  0.05030280  0.53897536  0.44202738     0.91000
O29         O  0.09714323  0.51286552  0.37347447    -0.82500
O30         O  0.14288481  0.60807558  0.36240164    -0.76100
Al31       Al  0.11319497  0.54151837  0.41082079     1.90100
O32         O  0.10674839  0.55460307  0.33318935    -0.75100
O33         O  0.09774741  0.65578543  0.36842819    -0.75000
O34         O  0.05915280  0.59751046  0.34733459    -0.80600
O35         O  0.09994513  0.65412659  0.42506625    -0.78800
O36         O  0.09603409  0.58473721  0.39842628    -1.15000
O37         O  0.09482420  0.59516854  0.47053558    -0.74200
C38         C  0.11934545  0.57638704  0.47455095     0.96500
C39         C  0.10217267  0.52070076  0.34231735     0.92900
Al40       Al  0.10112972  0.60265932  0.35599724     1.55600
O41         O  0.07693765  0.52427170  0.43800606    -0.78800
C42         C  0.10223528  0.67246627  0.39708330     0.97100
C43         C  0.16127840  0.58272447  0.37216941     0.92000
O44         O  0.15174617  0.55239110  0.38670625    -0.84100
O45         O  0.38277480  0.94562735  0.26382584    -0.83600
C46         C  0.28789369  0.89510478  0.34557608     0.95800
O47         O  0.29518349  0.87777119  0.31791347    -0.72700
O48         O  0.29538237  0.93550690  0.27800401    -0.76300
Al49       Al  0.32351754  0.89697943  0.28338989     1.49000
C50         C  0.30024576  0.96922970  0.26943954     0.91000
O51         O  0.34628668  0.99524646  0.33888590    -0.82500
O52         O  0.39207648  0.90013724  0.35007250    -0.76100
Al53       Al  0.36275150  0.96694441  0.30157336     1.90100
O54         O  0.35558327  0.95323619  0.37901733    -0.75100
O55         O  0.34703344  0.85221339  0.34334807    -0.75000
O56         O  0.30822706  0.91030562  0.36411178    -0.80600
O57         O  0.34991825  0.85410758  0.28678012    -0.78800
O58         O  0.34561367  0.92349332  0.31354875    -1.15000
O59         O  0.34531360  0.91326289  0.24151985    -0.74200
C60         C  0.36971616  0.93235196  0.23779794     0.96500
C61         C  0.35108268  0.98718958  0.37003653     0.92900
Al62       Al  0.35027174  0.90534247  0.35596906     1.55600
O63         O  0.32672199  0.98420112  0.27396819    -0.78800
C64         C  0.35167540  0.83557666  0.31470267     0.97100
C65         C  0.41049078  0.92559607  0.34055492     0.92000
O66         O  0.40105373  0.95601350  0.32608845    -0.84100
O67         O  0.40240709  0.55188034  0.32249455    -0.83600
C68         C  0.28865643  0.61110404  0.34386683     0.95800
O69         O  0.30915113  0.59566585  0.36200435    -0.72700
O70         O  0.35697391  0.55317443  0.37612989    -0.76300
Al71       Al  0.35121875  0.60125022  0.35372302     1.49000
C72         C  0.35288717  0.51929183  0.36676749     0.91000
O73         O  0.32785354  0.52335391  0.27108643    -0.82500
O74         O  0.34558981  0.59542001  0.23931878    -0.76100
Al75       Al  0.36400503  0.54070757  0.29829838     1.90100
O76         O  0.29621445  0.57172672  0.27566290    -0.75100
O77         O  0.35018735  0.65368952  0.28530845    -0.75000
O78         O  0.29575883  0.62888946  0.31640171    -0.80600
O79         O  0.34761886  0.65455271  0.34190538    -0.78800
O80         O  0.34656334  0.58376752  0.31104671    -1.15000
O81         O  0.39298081  0.60697067  0.34777036    -0.74200
C82         C  0.41159978  0.58201175  0.33765419     0.96500
C83         C  0.30124353  0.53806091  0.26694674     0.92900
Al84       Al  0.32405819  0.61056663  0.28147956     1.55600
O85         O  0.34822497  0.51155682  0.33551814    -0.78800
C86         C  0.35205167  0.67172773  0.31349471     0.97100
C87         C  0.36999356  0.57662642  0.23478655     0.92000
O88         O  0.38345486  0.56266238  0.26027577    -0.84100
O89         O  0.34837160  0.45612676  0.07293974    -0.83600
C90         C  0.46209452  0.39675577  0.09409977     0.95800
O91         O  0.44168135  0.41237914  0.11221846    -0.72700
O92         O  0.39410171  0.45531863  0.12611633    -0.76300
Al93       Al  0.39959804  0.40689630  0.10411187     1.49000
C94         C  0.39820098  0.48909845  0.11639512     0.91000
O95         O  0.42256913  0.48382522  0.02036355    -0.82500
O96         O  0.40518805  0.41235704  0.48946425    -0.76100
Al97       Al  0.38662696  0.46683609  0.04828343     1.90100
O98         O  0.45452030  0.43592460  0.02601105    -0.75100
O99         O  0.40038736  0.35425507  0.03577691    -0.75000
O100        O  0.45487265  0.37876478  0.06678134    -0.80600
O101        O  0.40293210  0.35342606  0.09241888    -0.78800
O102        O  0.40418862  0.42404918  0.06134385    -1.15000
O103        O  0.35780478  0.40122860  0.09842844    -0.74200
C104        C  0.33917234  0.42609241  0.08821896     0.96500
C105        C  0.44924428  0.46921549  0.01634780     0.92900
Al106      Al  0.42664540  0.39714042  0.03182167     1.55600
O107        O  0.40271183  0.49648942  0.08503140    -0.78800
C108        C  0.39833858  0.33629011  0.06398260     0.97100
C109        C  0.38059666  0.43086916  0.48517296     0.92000
O110        O  0.36695241  0.44392393  0.51093262    -0.84100
O111        O  0.36738086  0.06250362  0.01422203    -0.83600
C112        C  0.46246548  0.11273679  0.09550835     0.95800
O113        O  0.45530953  0.12995726  0.06773224    -0.72700
O114        O  0.45489030  0.07235000  0.02752194    -0.76300
Al115      Al  0.42679162  0.11101275  0.03324168     1.49000
C116        C  0.44991089  0.03865360  0.01890678     0.91000
O117        O  0.40441678  0.01296758  0.08890716    -0.82500
O118        O  0.35813591  0.10802430  0.09998288    -0.76100
Al119      Al  0.38762677  0.04110697  0.05167916     1.90100
O120        O  0.39463806  0.05490618  0.12900174    -0.75100
O121        O  0.40330321  0.15593246  0.09335441    -0.75000
O122        O  0.44202831  0.09784836  0.11410625    -0.80600
O123        O  0.40053255  0.15404271  0.03680017    -0.78800
O124        O  0.40474137  0.08459155  0.06351598    -1.15000
O125        O  0.40464950  0.09484431  0.49146960    -0.74200
C126        C  0.38021207  0.07572169  0.48803337     0.96500
C127        C  0.39929705  0.02097130  0.12002228     0.92900
Al128      Al  0.40001477  0.10282028  0.10593094     1.55600
O129        O  0.42343644  0.02379928  0.02368682    -0.78800
C130        C  0.39861963  0.17254655  0.06473375     0.97100
C131        C  0.33982628  0.08229777  0.09075628     0.92000
O132        O  0.34942573  0.05184740  0.07647811    -0.84100
O133        O  0.11750946  0.44551935  0.19858128    -0.83600
C134        C  0.21208979  0.39570994  0.11611052     0.95800
O135        O  0.20500593  0.37803517  0.14369503    -0.72700
O136        O  0.20457927  0.43479725  0.18473191    -0.76300
Al137      Al  0.17649607  0.39633313  0.17851279     1.49000
C138        C  0.19981849  0.46859712  0.19311868     0.91000
O139        O  0.15388352  0.49490846  0.12327261    -0.82500
O140        O  0.10786743  0.39963165  0.11238866    -0.76100
Al141      Al  0.13743686  0.46661345  0.16068813     1.90100
O142        O  0.14366976  0.45323424  0.08317514    -0.75100
O143        O  0.15339114  0.35198135  0.11800369    -0.75000
O144        O  0.19158909  0.41075296  0.09768111    -0.80600
O145        O  0.15023100  0.35331972  0.17450540    -0.78800
O146        O  0.15443341  0.42314081  0.14857264    -1.15000
O147        O  0.15447902  0.41192900  0.22047440    -0.74200
C148        C  0.13037428  0.43154622  0.22443078     0.96500
C149        C  0.14840333  0.48712518  0.09220042     0.92900
Al150      Al  0.14961232  0.40525479  0.10602365     1.55600
O151        O  0.17349487  0.48376922  0.18819825    -0.78800
C152        C  0.14873332  0.33500105  0.14644935     0.97100
C153        C  0.08949570  0.42514723  0.12196441     0.92000
O154        O  0.09902408  0.45562847  0.13631352    -0.84100
O155        O  0.09864273  0.05083421  0.13692199    -0.83600
C156        C  0.21224609  0.11034085  0.11796491     0.95800
O157        O  0.19199915  0.09505866  0.09932009    -0.72700
O158        O  0.14419772  0.05270409  0.08417044    -0.76300
Al159      Al  0.14989195  0.10067051  0.10693552     1.49000
C160        C  0.14867141  0.01884154  0.09334648     0.91000
O161        O  0.17265732  0.02244306  0.18952804    -0.82500
O162        O  0.15343206  0.09467053  0.22139102    -0.76100
Al163      Al  0.13683689  0.03966767  0.16164653     1.90100
O164        O  0.20377774  0.07143140  0.18636073    -0.75100
O165        O  0.14968031  0.15291681  0.17527705    -0.75000
O166        O  0.20479188  0.12812174  0.14535959    -0.80600
O167        O  0.15352010  0.15392098  0.11881864    -0.78800
O168        O  0.15411000  0.08299957  0.14959714    -1.15000
O169        O  0.10812920  0.10644528  0.11260135    -0.74200
C170        C  0.08947251  0.08138670  0.12242792     0.96500
C171        C  0.19897902  0.03759898  0.19458717     0.92900
Al172      Al  0.17587293  0.10992869  0.17974814     1.55600
O173        O  0.15348453  0.01106385  0.12454536    -0.78800
C174        C  0.14847959  0.17104334  0.14711267     0.97100
C175        C  0.12917055  0.07533394  0.22507570     0.92000
O176        O  0.11664624  0.06104245  0.19916883    -0.84100
C177        C  0.14185971  0.27307883  0.17803297    -0.15100
C178        C  0.14398562  0.29322413  0.14673219     0.07000
C179        C  0.14422585  0.27267789  0.11557657    -0.15100
C180        C  0.14409095  0.23299662  0.11574889    -0.15100
C181        C  0.14375091  0.21279652  0.14707857     0.07000
C182        C  0.14173070  0.23327974  0.17820596    -0.15100
H183        H  0.14151655  0.28802976  0.20248587     0.11000
H184        H  0.14569448  0.28723840  0.09098645     0.11000
H185        H  0.14546835  0.21815460  0.09128192     0.11000
H186        H  0.14131903  0.21859345  0.20278360     0.11000
C187        C  0.50303582  0.07941263  0.12935079    -0.15100
C188        C  0.49482205  0.10726405  0.10489566     0.07000
C189        C  0.01783531  0.12622414  0.08660246    -0.15100
C190        C  0.04846436  0.11730246  0.09231254    -0.15100
C191        C  0.05676172  0.08896972  0.11621754     0.07000
C192        C  0.03381050  0.07017669  0.13483912    -0.15100
H193        H  0.48563931  0.06392406  0.14350044     0.11000
H194        H  0.01216380  0.14745141  0.06739158     0.11000
H195        H  0.06570946  0.13239070  0.07758180     0.11000
H196        H  0.03964484  0.04861457  0.15367221     0.11000
C197        C  0.29821860  0.11753116  0.12068642    -0.15100
C198        C  0.30700770  0.08881148  0.09738349     0.07000
C199        C  0.28434764  0.06830330  0.07981563    -0.15100
C200        C  0.25340463  0.07652207  0.08543390    -0.15100
C201        C  0.24471863  0.10506960  0.10898787     0.07000
C202        C  0.26741122  0.12543628  0.12655170    -0.15100
H203        H  0.31521808  0.13381174  0.13471206     0.11000
H204        H  0.29053449  0.04625106  0.06159545     0.11000
H205        H  0.23627215  0.05987654  0.07197730     0.11000
H206        H  0.26136544  0.14718124  0.14514081     0.11000
C207        C  0.28347638  0.43842509  0.07687627    -0.15100
C208        C  0.30644443  0.41892648  0.09485610     0.07000
C209        C  0.29809890  0.39045422  0.11861387    -0.15100
C210        C  0.26744208  0.38185379  0.12457115    -0.15100
C211        C  0.24443483  0.40131471  0.10672256     0.07000
C212        C  0.25266818  0.42953887  0.08263754    -0.15100
H213        H  0.28931784  0.46023653  0.05828297     0.11000
H214        H  0.31532739  0.37490386  0.13295188     0.11000
H215        H  0.26175492  0.36037548  0.14354812     0.11000
H216        H  0.23527740  0.44548160  0.06891647     0.11000
C217        C  0.01729698  0.38164532  0.08607183    -0.15100
C218        C  0.49448930  0.40194100  0.10350224     0.07000
C219        C  0.50302359  0.43040294  0.12722511    -0.15100
C220        C  0.03393574  0.43869553  0.13303913    -0.15100
C221        C  0.05669699  0.41836200  0.11547508     0.07000
C222        C  0.04805028  0.38963523  0.09210805    -0.15100
H223        H  0.01138518  0.35995487  0.06737414     0.11000
H224        H  0.48580083  0.44696766  0.14061237     0.11000
H225        H  0.04001577  0.46073302  0.15132208     0.11000
H226        H  0.06511851  0.37346369  0.07808448     0.11000
C227        C  0.39284655  0.27412630  0.03260826    -0.15100
C228        C  0.39316532  0.29461358  0.06382242     0.07000
C229        C  0.39148874  0.27443716  0.09510324    -0.15100
C230        C  0.39159109  0.23473658  0.09526139    -0.15100
C231        C  0.39336736  0.21421343  0.06414518     0.07000
C232        C  0.39296099  0.23434755  0.03276699    -0.15100
H233        H  0.39395021  0.28878965  0.50804617     0.11000
H234        H  0.39139982  0.28930667  0.11960507     0.11000
H235        H  0.39155983  0.22014284  0.11989073     0.11000
H236        H  0.39414491  0.21942068  0.50833388     0.11000
C237        C  0.34172928  0.46363342  0.44856657    -0.15100
C238        C  0.36948310  0.44313118  0.45060776     0.07000
C239        C  0.38911870  0.44324619  0.42179911    -0.15100
C240        C  0.38225031  0.46580270  0.39287129    -0.15100
C241        C  0.35590017  0.48880157  0.39255714     0.07000
C242        C  0.33531264  0.48674122  0.42014234    -0.15100
H243        H  0.32607134  0.46438714  0.47028386     0.11000
H244        H  0.41087634  0.42847075  0.42273914     0.11000
H245        H  0.39867898  0.46759389  0.37193569     0.11000
H246        H  0.31504895  0.50452869  0.42048647     0.11000
C247        C  0.36072180  0.56357869  0.17187941    -0.15100
C248        C  0.38107636  0.56526389  0.19998445     0.07000
C249        C  0.40964398  0.54670733  0.19710463    -0.15100
C250        C  0.41630236  0.52379690  0.16855454    -0.15100
C251        C  0.39497413  0.51991474  0.14183443     0.07000
C252        C  0.36769428  0.54111299  0.14295676    -0.15100
H253        H  0.33834665  0.57678915  0.17352782     0.11000
H254        H  0.42581938  0.54722282  0.21833726     0.11000
H255        H  0.43730961  0.50738616  0.16826783     0.11000
H256        H  0.35071822  0.53787365  0.12273447     0.11000
C257        C  0.24544327  0.53411661  0.25169510    -0.15100
C258        C  0.27523688  0.51820873  0.24983308     0.07000
C259        C  0.27990282  0.48681698  0.22837699    -0.15100
C260        C  0.25551004  0.47198675  0.20904407    -0.15100
C261        C  0.22577095  0.48808320  0.21069421     0.07000
C262        C  0.22106311  0.51931729  0.23232838    -0.15100
H263        H  0.24094671  0.55847079  0.26802790     0.11000
H264        H  0.30248116  0.47434277  0.22586931     0.11000
H265        H  0.25998810  0.44760425  0.19274117     0.11000
H266        H  0.19848246  0.53178436  0.23483580     0.11000
C267        C  0.24457409  0.97240084  0.25341520    -0.15100
C268        C  0.27425933  0.98871157  0.25194313     0.07000
C269        C  0.27891642  0.01999756  0.23038435    -0.15100
C270        C  0.25460172  0.03445296  0.21071873    -0.15100
C271        C  0.22492270  0.01813390  0.21217289     0.07000
C272        C  0.22025709  0.98685248  0.23373736    -0.15100
H273        H  0.24010653  0.94803483  0.26973218     0.11000
H274        H  0.30143282  0.03269852  0.22808173     0.11000
H275        H  0.25907356  0.05881012  0.19439193     0.11000
H276        H  0.19774001  0.97414918  0.23602318     0.11000
C277        C  0.35717135  0.77323772  0.34516588    -0.15100
C278        C  0.35662611  0.79387134  0.31408342     0.07000
C279        C  0.35802073  0.77384679  0.28265802    -0.15100
C280        C  0.35813679  0.73404704  0.28236290    -0.15100
C281        C  0.35684968  0.71347145  0.31348686     0.07000
C282        C  0.35729626  0.73357271  0.34487174    -0.15100
H283        H  0.35629654  0.78771614  0.36984079     0.11000
H284        H  0.35773641  0.78888024  0.25825335     0.11000
H285        H  0.35793541  0.71943323  0.25773774     0.11000
H286        H  0.35650801  0.71866509  0.36932872     0.11000
C287        C  0.41597968  0.98880986  0.17400193    -0.15100
C288        C  0.39596589  0.99062188  0.14588680     0.07000
C289        C  0.36977535  0.96733194  0.14550992    -0.15100
C290        C  0.36242996  0.94471721  0.17424228    -0.15100
C291        C  0.38144322  0.94480829  0.20354717     0.07000
C292        C  0.40911226  0.96561368  0.20224131    -0.15100
H293        H  0.43612261  0.00679532  0.17486081     0.11000
H294        H  0.35379759  0.96891622  0.12412809     0.11000
H295        H  0.34076263  0.92970241  0.17460239     0.11000
H296        H  0.42431998  0.96650244  0.22435394     0.11000
C297        C  0.37875728  0.04280864  0.39496424    -0.15100
C298        C  0.35385298  0.01744827  0.39609831     0.07000
C299        C  0.33481442  0.01716949  0.42509590    -0.15100
C300        C  0.34147182  0.04030762  0.45339819    -0.15100
C301        C  0.36813743  0.06308697  0.45396634     0.07000
C302        C  0.38604334  0.06528906  0.42384523    -0.15100
H303        H  0.39397883  0.04292924  0.37284232     0.11000
H304        H  0.31565680  0.99764173  0.42652417     0.11000
H305        H  0.32704422  0.03779899  0.47606971     0.11000
H306        H  0.40689531  0.08197482  0.42354850     0.11000
C307        C  0.49456444  0.53539439  0.45795854    -0.15100
C308        C  0.02427526  0.51914266  0.45913113     0.07000
C309        C  0.02893239  0.48723575  0.47990306    -0.15100
C310        C  0.00466875  0.47225425  0.99929687    -0.15100
C311        C  0.47501042  0.48864566  0.49835806     0.07000
C312        C  0.47026781  0.52038013  0.47734981    -0.15100
H313        H  0.49007903  0.56017818  0.44218330     0.11000
H314        H  0.05144016  0.47445657  0.98186036     0.11000
H315        H  0.00922713  0.44751541  0.01509945     0.11000
H316        H  0.44776003  0.53317308  0.47544785     0.11000
C317        C  0.48323098  0.62618109  0.37421580    -0.15100
C318        C  0.00627368  0.60697003  0.35618344     0.07000
C319        C  0.49810094  0.57882964  0.33197920    -0.15100
C320        C  0.46731067  0.56984050  0.32622495    -0.15100
C321        C  0.44431205  0.58916267  0.34433020     0.07000
C322        C  0.45260082  0.61746898  0.36828035    -0.15100
H323        H  0.48887115  0.64754162  0.39333113     0.11000
H324        H  0.01552555  0.56304189  0.31815053     0.11000
H325        H  0.46150416  0.54812064  0.30751846     0.11000
H326        H  0.43534438  0.63282247  0.38276614     0.11000
C327        C  0.21690739  0.56929387  0.38318180    -0.15100
C328        C  0.19409045  0.58956353  0.36565892     0.07000
C329        C  0.20268944  0.61826479  0.34224472    -0.15100
C330        C  0.23342888  0.62624953  0.33608893    -0.15100
C331        C  0.25628709  0.60597789  0.35344200     0.07000
C332        C  0.24781175  0.57758578  0.37724691    -0.15100
H333        H  0.21087791  0.54728379  0.40150100     0.11000
H334        H  0.18559257  0.63440957  0.32825438     0.11000
H335        H  0.23928875  0.64790415  0.31734512     0.11000
H336        H  0.26507434  0.56105248  0.39058636     0.11000
C337        C  0.11174065  0.56387745  0.03813876    -0.15100
C338        C  0.13086750  0.56390287  0.00891008     0.07000
C339        C  0.15852526  0.54309164  0.01031317    -0.15100
C340        C  0.16520716  0.51964836  0.03843160    -0.15100
C341        C  0.14506280  0.51762652  0.06641992     0.07000
C342        C  0.11892708  0.54103005  0.06680371    -0.15100
H343        H  0.09011309  0.57896677  0.03774703     0.11000
H344        H  0.17386901  0.54233922  0.98831037     0.11000
H345        H  0.18533980  0.50165682  0.03757330     0.11000
H346        H  0.10288110  0.53938107  0.08812074     0.11000
C347        C  0.13104259  0.46641069  0.31677846    -0.15100
C348        C  0.10514115  0.49019131  0.31649123     0.07000
C349        C  0.08491742  0.48849541  0.28855632    -0.15100
C350        C  0.09135907  0.46504810  0.26034415    -0.15100
C351        C  0.11882704  0.44386040  0.25884174     0.07000
C352        C  0.13797595  0.44354205  0.28804627    -0.15100
H353        H  0.14714466  0.46780290  0.33805233     0.11000
H354        H  0.06494612  0.50676863  0.28779527     0.11000
H355        H  0.07603121  0.46609536  0.23834373     0.11000
H356        H  0.15948957  0.42820687  0.28756178     0.11000
C357        C  0.23268122  0.88042435  0.33705936    -0.15100
C358        C  0.25549946  0.90035943  0.35480853     0.07000
C359        C  0.24702725  0.92890385  0.37846145    -0.15100
C360        C  0.21617940  0.93784289  0.38371679    -0.15100
C361        C  0.19339508  0.91806413  0.36568720     0.07000
C362        C  0.20195632  0.88906583  0.34254323    -0.15100
H363        H  0.23857989  0.85862552  0.31846110     0.11000
H364        H  0.26427394  0.94515558  0.39212943     0.11000
H365        H  0.21016396  0.95997939  0.40192418     0.11000
H366        H  0.18485891  0.87319844  0.32827795     0.11000
C367        C  0.99688033  0.92904339  0.33396106    -0.15100
C368        C  0.00534554  0.90112559  0.35822964     0.07000
C369        C  0.48250951  0.88197265  0.37666115    -0.15100
C370        C  0.45179496  0.89053483  0.37102538    -0.15100
C371        C  0.44324760  0.91867356  0.34704647     0.07000
C372        C  0.46603184  0.93790728  0.32854553    -0.15100
H373        H  0.01413085  0.94475224  0.31978767     0.11000
H374        H  0.48837839  0.86076944  0.39581926     0.11000
H375        H  0.43467457  0.87522530  0.38575374     0.11000
H376        H  0.46000562  0.95942533  0.30974856     0.11000
C377        C  0.10814931  0.77407948  0.42893877    -0.15100
C378        C  0.10757833  0.79435648  0.39763093     0.07000
C379        C  0.10923960  0.77405664  0.36642108    -0.15100
C380        C  0.10925807  0.73440230  0.36640479    -0.15100
C381        C  0.10760765  0.71405738  0.39759642     0.07000
C382        C  0.10814674  0.73430730  0.42892246    -0.15100
H383        H  0.10709426  0.78888371  0.45344299     0.11000
H384        H  0.10916631  0.78878357  0.34185669     0.11000
H385        H  0.10920543  0.71970584  0.34181776     0.11000
H386        H  0.10709956  0.71948063  0.45340639     0.11000
C387        C  0.12832302  0.04339945  0.31813882    -0.15100
C388        C  0.10325793  0.01830026  0.31740931     0.07000
C389        C  0.08367114  0.01840978  0.28886957    -0.15100
C390        C  0.09009271  0.04147907  0.26045544    -0.15100
C391        C  0.11703143  0.06371122  0.25935887     0.07000
C392        C  0.13533735  0.06579790  0.28916806    -0.15100
H393        H  0.14392465  0.04324180  0.33991569     0.11000
H394        H  0.06434142  0.99911283  0.28779912     0.11000
H395        H  0.07535817  0.03916756  0.23802121     0.11000
H396        H  0.15638991  0.08210040  0.28904462     0.11000
C397        C  0.15955890  0.96306649  0.01148009    -0.15100
C398        C  0.13157723  0.94303211  0.00943023     0.07000
C399        C  0.11201367  0.94327676  0.03827989    -0.15100
C400        C  0.11907106  0.96570717  0.06720334    -0.15100
C401        C  0.14559846  0.98837090  0.06753973     0.07000
C402        C  0.16622250  0.98601147  0.03998610    -0.15100
H403        H  0.17516822  0.96363993  0.48971007     0.11000
H404        H  0.09011253  0.92882182  0.03733608     0.11000
H405        H  0.10263972  0.96770798  0.08812195     0.11000
H406        H  0.18665285  0.00351071  0.03969253     0.11000
C407        C  0.99514464  0.97278633  0.46009414    -0.15100
C408        C  0.02491941  0.98885386  0.46140859     0.07000
C409        C  0.02974790  0.02025906  0.48281170    -0.15100
C410        C  0.00552353  0.03506555  0.00245965    -0.15100
C411        C  0.47575496  0.01898306  0.00117925     0.07000
C412        C  0.47092198  0.98758418  0.47975606    -0.15100
H413        H  0.49051907  0.94835801  0.44389903     0.11000
H414        H  0.05232364  0.03282623  0.48497590     0.11000
H415        H  0.01014387  0.05950029  0.01864467     0.11000
H416        H  0.44834567  0.97502031  0.47759096     0.11000
O417        O  0.15142795  0.95571503  0.88676513    -0.83600
C418        C  0.03779734  0.89562812  0.86717627     0.95800
O419        O  0.05806777  0.91089337  0.84862739    -0.72700
O420        O  0.10518214  0.95394308  0.83379941    -0.76300
Al421      Al  0.10017397  0.90584534  0.85638943     1.49000
C422        C  0.10096004  0.98779943  0.84323110     0.91000
O423        O  0.07736371  0.98392271  0.93933784    -0.82500
O424        O  0.09550329  0.91259270  0.97091589    -0.76100
Al425      Al  0.11327202  0.96668538  0.91148728     1.90100
O426        O  0.04567300  0.93559891  0.93481330    -0.75100
O427        O  0.10007019  0.85414379  0.92527398    -0.75000
O428        O  0.04524119  0.87795900  0.89457575    -0.80600
O429        O  0.09717390  0.85263023  0.86867624    -0.78800
O430        O  0.09582662  0.92355981  0.89905044    -1.15000
O431        O  0.14201746  0.90053472  0.86172281    -0.74200
C432        C  0.16063661  0.92546708  0.87182972     0.96500
C433        C  0.05077269  0.96918972  0.94373090     0.92900
Al434      Al  0.07368990  0.89689874  0.92905114     1.55600
O435        O  0.09689380  0.99559113  0.87456648    -0.78800
C436        C  0.10208263  0.83590740  0.89721811     0.97100
C437        C  0.12005656  0.93125067  0.97492235     0.92000
O438        O  0.13328745  0.94475209  0.94908618    -0.84100
O439        O  0.13275970  0.56336271  0.94864301    -0.83600
C440        C  0.03859562  0.61263064  0.86561170     0.95800
O441        O  0.04561658  0.63027952  0.89319895    -0.72700
O442        O  0.04534219  0.57263230  0.93329275    -0.76300
Al443      Al  0.07351631  0.61126467  0.92821661     1.49000
C444        C  0.05030280  0.53897533  0.94202737     0.91000
O445        O  0.09714327  0.51286547  0.87347446    -0.82500
O446        O  0.14288480  0.60807546  0.86240160    -0.76100
Al447      Al  0.11319498  0.54151836  0.91082083     1.90100
O448        O  0.10674837  0.55460305  0.83318935    -0.75100
O449        O  0.09774743  0.65578536  0.86842815    -0.75000
O450        O  0.05915279  0.59751051  0.84733457    -0.80600
O451        O  0.09994513  0.65412654  0.92506621    -0.78800
O452        O  0.09603410  0.58473719  0.89842628    -1.15000
O453        O  0.09482419  0.59516861  0.97053560    -0.74200
C454        C  0.11934544  0.57638711  0.97455099     0.96500
C455        C  0.10217268  0.52070074  0.84231733     0.92900
Al456      Al  0.10112972  0.60265927  0.85599723     1.55600
O457        O  0.07693766  0.52427167  0.93800604    -0.78800
C458        C  0.10223529  0.67246622  0.89708325     0.97100
C459        C  0.16127841  0.58272441  0.87216943     0.92000
O460        O  0.15174621  0.55239110  0.88670637    -0.84100
O461        O  0.38277479  0.94562729  0.76382583    -0.83600
C462        C  0.28789370  0.89510471  0.84557619     0.95800
O463        O  0.29518353  0.87777108  0.81791362    -0.72700
O464        O  0.29538227  0.93550691  0.77800415    -0.76300
Al465      Al  0.32351749  0.89697946  0.78338994     1.49000
C466        C  0.30024570  0.96922969  0.76943960     0.91000
O467        O  0.34628670  0.99524653  0.83888589    -0.82500
O468        O  0.39207649  0.90013727  0.85007242    -0.76100
Al469      Al  0.36275151  0.96694443  0.80157334     1.90100
O470        O  0.35558327  0.95323621  0.87901729    -0.75100
O471        O  0.34703346  0.85221343  0.84334806    -0.75000
O472        O  0.30822706  0.91030557  0.86411189    -0.80600
O473        O  0.34991827  0.85410766  0.78678011    -0.78800
O474        O  0.34561366  0.92349337  0.81354877    -1.15000
O475        O  0.34531345  0.91326305  0.74151985    -0.74200
C476        C  0.36971606  0.93235206  0.73779793     0.96500
C477        C  0.35108269  0.98718962  0.87003651     0.92900
Al478      Al  0.35027176  0.90534249  0.85596906     1.55600
O479        O  0.32672196  0.98420107  0.77396818    -0.78800
C480        C  0.35167542  0.83557671  0.81470265     0.97100
C481        C  0.41049078  0.92559612  0.84055487     0.92000
O482        O  0.40105373  0.95601357  0.82608845    -0.84100
O483        O  0.40240707  0.55188043  0.82249461    -0.83600
C484        C  0.28865640  0.61110412  0.84386679     0.95800
O485        O  0.30915111  0.59566588  0.86200427    -0.72700
O486        O  0.35697394  0.55317455  0.87612993    -0.76300
Al487      Al  0.35121874  0.60125031  0.85372300     1.49000
C488        C  0.35288717  0.51929197  0.86676753     0.91000
O489        O  0.32785357  0.52335388  0.77108644    -0.82500
O490        O  0.34558978  0.59541994  0.73931874    -0.76100
Al491      Al  0.36400504  0.54070766  0.79829841     1.90100
O492        O  0.29621445  0.57172665  0.77566289    -0.75100
O493        O  0.35018728  0.65368956  0.78530840    -0.75000
O494        O  0.29575877  0.62888954  0.81640168    -0.80600
O495        O  0.34761881  0.65455274  0.84190534    -0.78800
O496        O  0.34656334  0.58376760  0.81104670    -1.15000
O497        O  0.39298080  0.60697081  0.84777031    -0.74200
C498        C  0.41159976  0.58201187  0.83765421     0.96500
C499        C  0.30124355  0.53806084  0.76694675     0.92900
Al500      Al  0.32405816  0.61056663  0.78147952     1.55600
O501        O  0.34822496  0.51155698  0.83551818    -0.78800
C502        C  0.35205158  0.67172775  0.81349466     0.97100
C503        C  0.36999355  0.57662639  0.73478656     0.92000
O504        O  0.38345489  0.56266249  0.76027581    -0.84100
O505        O  0.34837161  0.45612685  0.57293970    -0.83600
C506        C  0.46209453  0.39675584  0.59409974     0.95800
O507        O  0.44168137  0.41237926  0.61221842    -0.72700
O508        O  0.39410172  0.45531864  0.62611636    -0.76300
Al509      Al  0.39959805  0.40689638  0.60411187     1.49000
C510        C  0.39820101  0.48909844  0.61639515     0.91000
O511        O  0.42256912  0.48382520  0.52036350    -0.82500
O512        O  0.40518805  0.41235713  0.98946436    -0.76100
Al513      Al  0.38662697  0.46683609  0.54828339     1.90100
O514        O  0.45452031  0.43592463  0.52601103    -0.75100
O515        O  0.40038739  0.35425505  0.53577688    -0.75000
O516        O  0.45487265  0.37876489  0.56678130    -0.80600
O517        O  0.40293209  0.35342608  0.59241885    -0.78800
O518        O  0.40418860  0.42404922  0.56134382    -1.15000
O519        O  0.35780478  0.40122878  0.59842856    -0.74200
C520        C  0.33917233  0.42609257  0.58821898     0.96500
C521        C  0.44924427  0.46921550  0.51634776     0.92900
Al522      Al  0.42664540  0.39714044  0.53182164     1.55600
O523        O  0.40271186  0.49648941  0.58503142    -0.78800
C524        C  0.39833859  0.33629010  0.56398258     0.97100
C525        C  0.38059668  0.43086930  0.98517304     0.92000
O526        O  0.36695239  0.44392404  0.01093267    -0.84100
O527        O  0.36738085  0.06250351  0.51422205    -0.83600
C528        C  0.46246548  0.11273672  0.59550839     0.95800
O529        O  0.45530952  0.12995723  0.56773231    -0.72700
O530        O  0.45489032  0.07234995  0.52752199    -0.76300
Al531      Al  0.42679163  0.11101271  0.53324172     1.49000
C532        C  0.44991087  0.03865356  0.51890677     0.91000
O533        O  0.40441680  0.01296751  0.58890717    -0.82500
O534        O  0.35813585  0.10802434  0.59998282    -0.76100
Al535      Al  0.38762676  0.04110692  0.55167917     1.90100
O536        O  0.39463803  0.05490612  0.62900173    -0.75100
O537        O  0.40330321  0.15593242  0.59335442    -0.75000
O538        O  0.44202831  0.09784822  0.61410626    -0.80600
O539        O  0.40053259  0.15404274  0.53680017    -0.78800
O540        O  0.40474134  0.08459152  0.56351599    -1.15000
O541        O  0.40464948  0.09484442  0.99146956    -0.74200
C542        C  0.38021206  0.07572182  0.98803334     0.96500
C543        C  0.39929706  0.02097124  0.62002228     0.92900
Al544      Al  0.40001474  0.10282024  0.60593093     1.55600
O545        O  0.42343641  0.02379928  0.52368679    -0.78800
C546        C  0.39861964  0.17254654  0.56473376     0.97100
C547        C  0.33982625  0.08229778  0.59075623     0.92000
O548        O  0.34942573  0.05184740  0.57647812    -0.84100
O549        O  0.11750949  0.44551946  0.69858139    -0.83600
C550        C  0.21208976  0.39571003  0.61611050     0.95800
O551        O  0.20500589  0.37803531  0.64369504    -0.72700
O552        O  0.20457927  0.43479723  0.68473211    -0.76300
Al553      Al  0.17649606  0.39633316  0.67851284     1.49000
C554        C  0.19981850  0.46859713  0.69311877     0.91000
O555        O  0.15388353  0.49490843  0.62327266    -0.82500
O556        O  0.10786742  0.39963178  0.61238864    -0.76100
Al557      Al  0.13743686  0.46661349  0.66068822     1.90100
O558        O  0.14366976  0.45323420  0.58317521    -0.75100
O559        O  0.15339111  0.35198145  0.61800367    -0.75000
O560        O  0.19158907  0.41075300  0.59768105    -0.80600
O561        O  0.15023102  0.35331976  0.67450537    -0.78800
O562        O  0.15443339  0.42314086  0.64857271    -1.15000
O563        O  0.15447899  0.41192893  0.72047443    -0.74200
C564        C  0.13037426  0.43154618  0.72443084     0.96500
C565        C  0.14840334  0.48712512  0.59220046     0.92900
Al566      Al  0.14961231  0.40525486  0.60602368     1.55600
O567        O  0.17349489  0.48376923  0.68819829    -0.78800
C568        C  0.14873332  0.33500111  0.64644932     0.97100
C569        C  0.08949567  0.42514728  0.62196446     0.92000
O570        O  0.09902402  0.45562849  0.63631369    -0.84100
O571        O  0.09864271  0.05083414  0.63692200    -0.83600
C572        C  0.21224610  0.11034085  0.61796486     0.95800
O573        O  0.19199915  0.09505860  0.59932004    -0.72700
O574        O  0.14419771  0.05270400  0.58417043    -0.76300
Al575      Al  0.14989195  0.10067046  0.60693553     1.49000
C576        C  0.14867141  0.01884145  0.59334646     0.91000
O577        O  0.17265732  0.02244303  0.68952801    -0.82500
O578        O  0.15343209  0.09467050  0.72139102    -0.76100
Al579      Al  0.13683687  0.03966762  0.66164652     1.90100
O580        O  0.20377770  0.07143141  0.68636071    -0.75100
O581        O  0.14968033  0.15291682  0.67527701    -0.75000
O582        O  0.20479188  0.12812169  0.64535955    -0.80600
O583        O  0.15352011  0.15392098  0.61881860    -0.78800
O584        O  0.15411002  0.08299951  0.64959712    -1.15000
O585        O  0.10812922  0.10644527  0.61260150    -0.74200
C586        C  0.08947251  0.08138671  0.62242801     0.96500
C587        C  0.19897900  0.03759898  0.69458715     0.92900
Al588      Al  0.17587293  0.10992866  0.67974811     1.55600
O589        O  0.15348451  0.01106375  0.62454534    -0.78800
C590        C  0.14847959  0.17104335  0.64711262     0.97100
C591        C  0.12917055  0.07533398  0.72507571     0.92000
O592        O  0.11664621  0.06104252  0.69916884    -0.84100
C593        C  0.14185972  0.27307881  0.67803291    -0.15100
C594        C  0.14398562  0.29322416  0.64673215     0.07000
C595        C  0.14422582  0.27267795  0.61557652    -0.15100
C596        C  0.14409082  0.23299664  0.61574883    -0.15100
C597        C  0.14375086  0.21279654  0.64707852     0.07000
C598        C  0.14173071  0.23327973  0.67820591    -0.15100
H599        H  0.14151656  0.28802975  0.70248592     0.11000
H600        H  0.14569449  0.28723841  0.59098652     0.11000
H601        H  0.14546814  0.21815467  0.59128196     0.11000
H602        H  0.14131907  0.21859342  0.70278354     0.11000
C603        C  0.50303584  0.07941261  0.62935076    -0.15100
C604        C  0.49482206  0.10726405  0.60489567     0.07000
C605        C  0.01783531  0.12622416  0.58660245    -0.15100
C606        C  0.04846438  0.11730252  0.59231254    -0.15100
C607        C  0.05676173  0.08896975  0.61621755     0.07000
C608        C  0.03381051  0.07017675  0.63483911    -0.15100
H609        H  0.48563935  0.06392401  0.64350033     0.11000
H610        H  0.01216377  0.14745148  0.56739154     0.11000
H611        H  0.06570948  0.13239081  0.57758191     0.11000
H612        H  0.03964486  0.04861464  0.65367229     0.11000
C613        C  0.29821857  0.11753111  0.62068637    -0.15100
C614        C  0.30700768  0.08881143  0.59738348     0.07000
C615        C  0.28434763  0.06830322  0.57981562    -0.15100
C616        C  0.25340463  0.07652200  0.58543390    -0.15100
C617        C  0.24471863  0.10506958  0.60898781     0.07000
C618        C  0.26741121  0.12543633  0.62655165    -0.15100
H619        H  0.31521813  0.13381176  0.63471207     0.11000
H620        H  0.29053449  0.04625098  0.56159543     0.11000
H621        H  0.23627214  0.05987646  0.57197731     0.11000
H622        H  0.26136548  0.14718119  0.64514056     0.11000
C623        C  0.28347637  0.43842523  0.57687624    -0.15100
C624        C  0.30644442  0.41892662  0.59485610     0.07000
C625        C  0.29809890  0.39045434  0.61861385    -0.15100
C626        C  0.26744209  0.38185382  0.62457106    -0.15100
C627        C  0.24443482  0.40131473  0.60672251     0.07000
C628        C  0.25266816  0.42953896  0.58263752    -0.15100
H629        H  0.28931777  0.46023656  0.55828301     0.11000
H630        H  0.31532740  0.37490404  0.63295190     0.11000
H631        H  0.26175492  0.36037540  0.64354812     0.11000
H632        H  0.23527746  0.44548161  0.56891652     0.11000
C633        C  0.01729697  0.38164528  0.58607181    -0.15100
C634        C  0.49448931  0.40194102  0.60350221     0.07000
C635        C  0.50302361  0.43040293  0.62722507    -0.15100
C636        C  0.03393573  0.43869557  0.63303906    -0.15100
C637        C  0.05669698  0.41836201  0.61547507     0.07000
C638        C  0.04805029  0.38963517  0.59210804    -0.15100
H639        H  0.01138517  0.35995484  0.56737417     0.11000
H640        H  0.48580083  0.44696765  0.64061241     0.11000
H641        H  0.04001574  0.46073308  0.65132193     0.11000
H642        H  0.06511845  0.37346368  0.57808453     0.11000
C643        C  0.39284653  0.27412624  0.53260825    -0.15100
C644        C  0.39316532  0.29461354  0.56382239     0.07000
C645        C  0.39148875  0.27443714  0.59510324    -0.15100
C646        C  0.39159110  0.23473656  0.59526140    -0.15100
C647        C  0.39336737  0.21421341  0.56414521     0.07000
C648        C  0.39296097  0.23434750  0.53276700    -0.15100
H649        H  0.39395029  0.28878972  0.00804621     0.11000
H650        H  0.39139983  0.28930668  0.61960505     0.11000
H651        H  0.39155983  0.22014284  0.61989078     0.11000
H652        H  0.39414501  0.21942072  0.00833380     0.11000
C653        C  0.34172927  0.46363339  0.94856655    -0.15100
C654        C  0.36948315  0.44313129  0.95060779     0.07000
C655        C  0.38911873  0.44324632  0.92179912    -0.15100
C656        C  0.38225032  0.46580281  0.89287128    -0.15100
C657        C  0.35590016  0.48880163  0.89255712     0.07000
C658        C  0.33531260  0.48674116  0.92014230    -0.15100
H659        H  0.32607133  0.46438709  0.97028383     0.11000
H660        H  0.41087644  0.42847082  0.92273914     0.11000
H661        H  0.39867898  0.46759402  0.87193566     0.11000
H662        H  0.31504891  0.50452858  0.92048644     0.11000
C663        C  0.36072184  0.56357861  0.67187940    -0.15100
C664        C  0.38107634  0.56526379  0.69998447     0.07000
C665        C  0.40964397  0.54670721  0.69710476    -0.15100
C666        C  0.41630238  0.52379678  0.66855465    -0.15100
C667        C  0.39497417  0.51991469  0.64183449     0.07000
C668        C  0.36769430  0.54111292  0.64295675    -0.15100
H669        H  0.33834662  0.57678915  0.67352774     0.11000
H670        H  0.42581925  0.54722274  0.71833728     0.11000
H671        H  0.43730956  0.50738614  0.66826796     0.11000
H672        H  0.35071836  0.53787362  0.62273452     0.11000
C673        C  0.24544327  0.53411653  0.75169524    -0.15100
C674        C  0.27523689  0.51820865  0.74983312     0.07000
C675        C  0.27990284  0.48681694  0.72837698    -0.15100
C676        C  0.25551005  0.47198681  0.70904399    -0.15100
C677        C  0.22577096  0.48808329  0.71069419     0.07000
C678        C  0.22106311  0.51931729  0.73232845    -0.15100
H679        H  0.24094675  0.55847052  0.76802807     0.11000
H680        H  0.30248106  0.47434271  0.72586930     0.11000
H681        H  0.25998807  0.44760440  0.69274113     0.11000
H682        H  0.19848244  0.53178432  0.73483594     0.11000
C683        C  0.24457407  0.97240081  0.75341513    -0.15100
C684        C  0.27425930  0.98871157  0.75194315     0.07000
C685        C  0.27891641  0.01999766  0.73038447    -0.15100
C686        C  0.25460174  0.03445297  0.71071874    -0.15100
C687        C  0.22492271  0.01813396  0.71217289     0.07000
C688        C  0.22025708  0.98685255  0.73373735    -0.15100
H689        H  0.24010649  0.94803478  0.76973202     0.11000
H690        H  0.30143271  0.03269864  0.72808198     0.11000
H691        H  0.25907363  0.05881011  0.69439184     0.11000
H692        H  0.19773994  0.97414926  0.73602316     0.11000
C693        C  0.35717136  0.77323770  0.84516584    -0.15100
C694        C  0.35662612  0.79387136  0.81408339     0.07000
C695        C  0.35802070  0.77384679  0.78265798    -0.15100
C696        C  0.35813666  0.73404702  0.78236286    -0.15100
C697        C  0.35684960  0.71347146  0.81348683     0.07000
C698        C  0.35729624  0.73357269  0.84487173    -0.15100
H699        H  0.35629653  0.78771616  0.86984085     0.11000
H700        H  0.35773642  0.78888023  0.75825330     0.11000
H701        H  0.35793520  0.71943325  0.75773782     0.11000
H702        H  0.35650797  0.71866511  0.86932860     0.11000
C703        C  0.41597965  0.98880990  0.67400194    -0.15100
C704        C  0.39596590  0.99062185  0.64588679     0.07000
C705        C  0.36977536  0.96733191  0.64550987    -0.15100
C706        C  0.36242992  0.94471731  0.67424226    -0.15100
C707        C  0.38144312  0.94480842  0.70354716     0.07000
C708        C  0.40911221  0.96561371  0.70224127    -0.15100
H709        H  0.43612253  0.00679540  0.67486085     0.11000
H710        H  0.35379763  0.96891616  0.62412800     0.11000
H711        H  0.34076245  0.92970245  0.67460235     0.11000
H712        H  0.42432001  0.96650243  0.72435400     0.11000
C713        C  0.37875727  0.04280875  0.89496420    -0.15100
C714        C  0.35385301  0.01744829  0.89609831     0.07000
C715        C  0.33481447  0.01716956  0.92509588    -0.15100
C716        C  0.34147184  0.04030766  0.95339818    -0.15100
C717        C  0.36813741  0.06308708  0.95396631     0.07000
C718        C  0.38604334  0.06528920  0.92384519    -0.15100
H719        H  0.39397881  0.04292936  0.87284227     0.11000
H720        H  0.31565670  0.99764167  0.92652413     0.11000
H721        H  0.32704429  0.03779898  0.97606970     0.11000
H722        H  0.40689522  0.08197491  0.92354847     0.11000
C723        C  0.49456443  0.53539433  0.95795847    -0.15100
C724        C  0.02427528  0.51914264  0.95913114     0.07000
C725        C  0.02893242  0.48723582  0.97990319    -0.15100
C726        C  0.00466876  0.47225425  0.49929686    -0.15100
C727        C  0.47501042  0.48864566  0.99835808     0.07000
C728        C  0.47026783  0.52038009  0.97734979    -0.15100
H729        H  0.49007903  0.56017806  0.94218321     0.11000
H730        H  0.05144010  0.47445644  0.48186012     0.11000
H731        H  0.00922715  0.44751549  0.51509947     0.11000
H732        H  0.44775996  0.53317309  0.97544781     0.11000
C733        C  0.48323097  0.62618106  0.87421600    -0.15100
C734        C  0.00627364  0.60697001  0.85618356     0.07000
C735        C  0.49810088  0.57882966  0.83197927    -0.15100
C736        C  0.46731061  0.56984054  0.82622505    -0.15100
C737        C  0.44431201  0.58916275  0.84433029     0.07000
C738        C  0.45260076  0.61746905  0.86828051    -0.15100
H739        H  0.48887113  0.64754147  0.89333130     0.11000
H740        H  0.01552549  0.56304196  0.81815062     0.11000
H741        H  0.46150409  0.54812072  0.80751856     0.11000
H742        H  0.43534446  0.63282248  0.88276617     0.11000
C743        C  0.21690740  0.56929385  0.88318180    -0.15100
C744        C  0.19409046  0.58956353  0.86565890     0.07000
C745        C  0.20268943  0.61826478  0.84224469    -0.15100
C746        C  0.23342886  0.62624960  0.83608892    -0.15100
C747        C  0.25628708  0.60597794  0.85344199     0.07000
C748        C  0.24781174  0.57758585  0.87724687    -0.15100
H749        H  0.21087798  0.54728391  0.90150083     0.11000
H750        H  0.18559253  0.63440954  0.82825428     0.11000
H751        H  0.23928871  0.64790422  0.81734520     0.11000
H752        H  0.26507444  0.56105249  0.89058642     0.11000
C753        C  0.11174066  0.56387736  0.53813872    -0.15100
C754        C  0.13086751  0.56390277  0.50891003     0.07000
C755        C  0.15852527  0.54309153  0.51031312    -0.15100
C756        C  0.16520719  0.51964824  0.53843157    -0.15100
C757        C  0.14506279  0.51762641  0.56641990     0.07000
C758        C  0.11892711  0.54102996  0.56680366    -0.15100
H759        H  0.09011315  0.57896673  0.53774699     0.11000
H760        H  0.17386900  0.54233913  0.48831036     0.11000
H761        H  0.18533975  0.50165681  0.53757330     0.11000
H762        H  0.10288109  0.53938104  0.58812085     0.11000
C763        C  0.13104261  0.46641077  0.81677840    -0.15100
C764        C  0.10514117  0.49019136  0.81649117     0.07000
C765        C  0.08491744  0.48849554  0.78855627    -0.15100
C766        C  0.09135909  0.46504819  0.76034412    -0.15100
C767        C  0.11882702  0.44386036  0.75884178     0.07000
C768        C  0.13797593  0.44354202  0.78804628    -0.15100
H769        H  0.14714466  0.46780299  0.83805227     0.11000
H770        H  0.06494621  0.50676867  0.78779525     0.11000
H771        H  0.07603122  0.46609544  0.73834372     0.11000
H772        H  0.15948950  0.42820678  0.78756183     0.11000
C773        C  0.23268123  0.88042430  0.83705937    -0.15100
C774        C  0.25549945  0.90035941  0.85480855     0.07000
C775        C  0.24702725  0.92890393  0.87846139    -0.15100
C776        C  0.21617940  0.93784295  0.88371670    -0.15100
C777        C  0.19339508  0.91806409  0.86568719     0.07000
C778        C  0.20195632  0.88906577  0.84254321    -0.15100
H779        H  0.23857991  0.85862546  0.81846112     0.11000
H780        H  0.26427386  0.94515562  0.89212929     0.11000
H781        H  0.21016396  0.95997948  0.90192404     0.11000
H782        H  0.18485899  0.87319843  0.82827798     0.11000
C783        C  0.99688035  0.92904347  0.83396102    -0.15100
C784        C  0.00534554  0.90112563  0.85822961     0.07000
C785        C  0.48250950  0.88197277  0.87666110    -0.15100
C786        C  0.45179498  0.89053498  0.87102540    -0.15100
C787        C  0.44324761  0.91867365  0.84704644     0.07000
C788        C  0.46603185  0.93790730  0.82854546    -0.15100
H789        H  0.01413078  0.94475226  0.81978773     0.11000
H790        H  0.48837842  0.86076944  0.89581936     0.11000
H791        H  0.43467452  0.87522547  0.88575383     0.11000
H792        H  0.46000562  0.95942532  0.80974838     0.11000
C793        C  0.10814932  0.77407943  0.92893874    -0.15100
C794        C  0.10757829  0.79435651  0.89763094     0.07000
C795        C  0.10923948  0.77405669  0.86642108    -0.15100
C796        C  0.10925804  0.73440237  0.86640477    -0.15100
C797        C  0.10760765  0.71405736  0.89759636     0.07000
C798        C  0.10814674  0.73430726  0.92892241    -0.15100
H799        H  0.10709429  0.78888369  0.95344308     0.11000
H800        H  0.10916611  0.78878367  0.84185670     0.11000
H801        H  0.10920544  0.71970590  0.84181761     0.11000
H802        H  0.10709957  0.71948056  0.95340633     0.11000
C803        C  0.12832302  0.04339952  0.81813885    -0.15100
C804        C  0.10325793  0.01830032  0.81740938     0.07000
C805        C  0.08367114  0.01840981  0.78886964    -0.15100
C806        C  0.09009271  0.04147909  0.76045550    -0.15100
C807        C  0.11703143  0.06371121  0.75935889     0.07000
C808        C  0.13533739  0.06579787  0.78916805    -0.15100
H809        H  0.14392470  0.04324189  0.83991572     0.11000
H810        H  0.06434149  0.99911282  0.78779921     0.11000
H811        H  0.07535814  0.03916757  0.73802130     0.11000
H812        H  0.15638998  0.08210031  0.78904453     0.11000
C813        C  0.15955895  0.96306641  0.51148006    -0.15100
C814        C  0.13157729  0.94303202  0.50943022     0.07000
C815        C  0.11201370  0.94327666  0.53827986    -0.15100
C816        C  0.11907108  0.96570707  0.56720331    -0.15100
C817        C  0.14559847  0.98837081  0.56753971     0.07000
C818        C  0.16622250  0.98601140  0.53998608    -0.15100
H819        H  0.17516821  0.96363993  0.98971011     0.11000
H820        H  0.09011264  0.92882184  0.53733599     0.11000
H821        H  0.10263970  0.96770789  0.58812189     0.11000
H822        H  0.18665290  0.00351076  0.53969249     0.11000
C823        C  0.99514464  0.97278636  0.96009418    -0.15100
C824        C  0.02491942  0.98885390  0.96140863     0.07000
C825        C  0.02974790  0.02025916  0.98281167    -0.15100
C826        C  0.00552353  0.03506545  0.50245963    -0.15100
C827        C  0.47575492  0.01898298  0.50117924     0.07000
C828        C  0.47092201  0.98758430  0.97975605    -0.15100
H829        H  0.49051908  0.94835801  0.94389913     0.11000
H830        H  0.05232354  0.03282630  0.98497586     0.11000
H831        H  0.01014387  0.05950037  0.51864470     0.11000
H832        H  0.44834560  0.97502043  0.97759093     0.11000
O833        O  0.65142796  0.95571513  0.38676504    -0.83600
C834        C  0.53779736  0.89562810  0.36717630     0.95800
O835        O  0.55806779  0.91089343  0.34862743    -0.72700
O836        O  0.60518215  0.95394311  0.33379945    -0.76300
Al837      Al  0.60017399  0.90584537  0.35638946     1.49000
C838        C  0.60096004  0.98779945  0.34323110     0.91000
O839        O  0.57736372  0.98392264  0.43933784    -0.82500
O840        O  0.59550329  0.91259271  0.47091592    -0.76100
Al841      Al  0.61327204  0.96668536  0.41148728     1.90100
O842        O  0.54567303  0.93559885  0.43481333    -0.75100
O843        O  0.60007020  0.85414371  0.42527401    -0.75000
O844        O  0.54524122  0.87795898  0.39457577    -0.80600
O845        O  0.59717394  0.85263026  0.36867626    -0.78800
O846        O  0.59582665  0.92355977  0.39905046    -1.15000
O847        O  0.64201747  0.90053476  0.36172283    -0.74200
C848        C  0.66063662  0.92546715  0.37182969     0.96500
C849        C  0.55077269  0.96918967  0.44373086     0.92900
Al850      Al  0.57368992  0.89689869  0.42905118     1.55600
O851        O  0.59689382  0.99559119  0.37456649    -0.78800
C852        C  0.60208261  0.83590737  0.39721812     0.97100
C853        C  0.62005658  0.93125065  0.47492235     0.92000
O854        O  0.63328750  0.94475196  0.44908616    -0.84100
O855        O  0.63275968  0.56336261  0.44864295    -0.83600
C856        C  0.53859565  0.61263068  0.36561164     0.95800
O857        O  0.54561659  0.63027960  0.39319889    -0.72700
O858        O  0.54534217  0.57263237  0.43329277    -0.76300
Al859      Al  0.57351632  0.61126471  0.42821661     1.49000
C860        C  0.55030275  0.53897538  0.44202739     0.91000
O861        O  0.59714320  0.51286552  0.37347445    -0.82500
O862        O  0.64288483  0.60807558  0.36240165    -0.76100
Al863      Al  0.61319494  0.54151836  0.41082078     1.90100
O864        O  0.60674842  0.55460307  0.33318935    -0.75100
O865        O  0.59774743  0.65578543  0.36842819    -0.75000
O866        O  0.55915282  0.59751046  0.34733459    -0.80600
O867        O  0.59994515  0.65412659  0.42506625    -0.78800
O868        O  0.59603409  0.58473722  0.39842627    -1.15000
O869        O  0.59482421  0.59516856  0.47053558    -0.74200
C870        C  0.61934544  0.57638705  0.47455095     0.96500
C871        C  0.60217270  0.52070076  0.34231734     0.92900
Al872      Al  0.60112974  0.60265932  0.35599724     1.55600
O873        O  0.57693758  0.52427168  0.43800603    -0.78800
C874        C  0.60223531  0.67246627  0.39708330     0.97100
C875        C  0.66127841  0.58272446  0.37216942     0.92000
O876        O  0.65174616  0.55239109  0.38670626    -0.84100
O877        O  0.88277471  0.94562733  0.26382583    -0.83600
C878        C  0.78789366  0.89510478  0.34557608     0.95800
O879        O  0.79518348  0.87777118  0.31791349    -0.72700
O880        O  0.79538232  0.93550691  0.27800404    -0.76300
Al881      Al  0.82351750  0.89697943  0.28338989     1.49000
C882        C  0.80024574  0.96922970  0.26943954     0.91000
O883        O  0.84628671  0.99524647  0.33888591    -0.82500
O884        O  0.89207646  0.90013725  0.35007251    -0.76100
Al885      Al  0.86275149  0.96694440  0.30157336     1.90100
O886        O  0.85558325  0.95323619  0.37901734    -0.75100
O887        O  0.84703339  0.85221338  0.34334807    -0.75000
O888        O  0.80822701  0.91030564  0.36411178    -0.80600
O889        O  0.84991823  0.85410760  0.28678012    -0.78800
O890        O  0.84561365  0.92349333  0.31354875    -1.15000
O891        O  0.84531349  0.91326290  0.24151984    -0.74200
C892        C  0.86971605  0.93235196  0.23779793     0.96500
C893        C  0.85108271  0.98718958  0.37003653     0.92900
Al894      Al  0.85027172  0.90534248  0.35596906     1.55600
O895        O  0.82672197  0.98420109  0.27396821    -0.78800
C896        C  0.85167535  0.83557666  0.31470267     0.97100
C897        C  0.91049077  0.92559607  0.34055491     0.92000
O898        O  0.90105374  0.95601350  0.32608844    -0.84100
O899        O  0.90240709  0.55188034  0.32249454    -0.83600
C900        C  0.78865642  0.61110404  0.34386684     0.95800
O901        O  0.80915113  0.59566586  0.36200434    -0.72700
O902        O  0.85697394  0.55317443  0.37612989    -0.76300
Al903      Al  0.85121875  0.60125022  0.35372301     1.49000
C904        C  0.85288720  0.51929183  0.36676749     0.91000
O905        O  0.82785348  0.52335395  0.27108645    -0.82500
O906        O  0.84558978  0.59542001  0.23931879    -0.76100
Al907      Al  0.86400501  0.54070758  0.29829837     1.90100
O908        O  0.79621435  0.57172673  0.27566291    -0.75100
O909        O  0.85018728  0.65368951  0.28530845    -0.75000
O910        O  0.79575876  0.62888945  0.31640171    -0.80600
O911        O  0.84761884  0.65455271  0.34190538    -0.78800
O912        O  0.84656331  0.58376752  0.31104670    -1.15000
O913        O  0.89298081  0.60697067  0.34777036    -0.74200
C914        C  0.91159978  0.58201175  0.33765418     0.96500
C915        C  0.80124347  0.53806092  0.26694676     0.92900
Al916      Al  0.82405813  0.61056663  0.28147956     1.55600
O917        O  0.84822499  0.51155682  0.33551814    -0.78800
C918        C  0.85205160  0.67172773  0.31349470     0.97100
C919        C  0.86999354  0.57662642  0.23478656     0.92000
O920        O  0.88345485  0.56266239  0.26027577    -0.84100
O921        O  0.84837160  0.45612677  0.07293975    -0.83600
C922        C  0.96209453  0.39675577  0.09409976     0.95800
O923        O  0.94168137  0.41237914  0.11221846    -0.72700
O924        O  0.89410174  0.45531863  0.12611633    -0.76300
Al925      Al  0.89959805  0.40689630  0.10411187     1.49000
C926        C  0.89820102  0.48909845  0.11639514     0.91000
O927        O  0.92256909  0.48382521  0.02036353    -0.82500
O928        O  0.90518805  0.41235703  0.48946425    -0.76100
Al929      Al  0.88662695  0.46683609  0.04828343     1.90100
O930        O  0.95452026  0.43592461  0.02601105    -0.75100
O931        O  0.90038734  0.35425507  0.03577692    -0.75000
O932        O  0.95487264  0.37876478  0.06678133    -0.80600
O933        O  0.90293212  0.35342606  0.09241888    -0.78800
O934        O  0.90418861  0.42404919  0.06134386    -1.15000
O935        O  0.85780479  0.40122860  0.09842844    -0.74200
C936        C  0.83917233  0.42609241  0.08821895     0.96500
C937        C  0.94924424  0.46921550  0.01634780     0.92900
Al938      Al  0.92664538  0.39714042  0.03182167     1.55600
O939        O  0.90271185  0.49648942  0.08503141    -0.78800
C940        C  0.89833859  0.33629011  0.06398261     0.97100
C941        C  0.88059667  0.43086917  0.48517296     0.92000
O942        O  0.86695242  0.44392393  0.51093262    -0.84100
O943        O  0.86738085  0.06250358  0.01422205    -0.83600
C944        C  0.96246549  0.11273679  0.09550835     0.95800
O945        O  0.95530955  0.12995725  0.06773223    -0.72700
O946        O  0.95489030  0.07235000  0.02752193    -0.76300
Al947      Al  0.92679162  0.11101276  0.03324168     1.49000
C948        C  0.94991089  0.03865360  0.01890677     0.91000
O949        O  0.90441681  0.01296758  0.08890716    -0.82500
O950        O  0.85813587  0.10802430  0.09998288    -0.76100
Al951      Al  0.88762678  0.04110696  0.05167917     1.90100
O952        O  0.89463808  0.05490617  0.12900174    -0.75100
O953        O  0.90330323  0.15593246  0.09335442    -0.75000
O954        O  0.94202832  0.09784836  0.11410625    -0.80600
O955        O  0.90053257  0.15404272  0.03680017    -0.78800
O956        O  0.90474138  0.08459155  0.06351598    -1.15000
O957        O  0.90464945  0.09484435  0.49146961    -0.74200
C958        C  0.88021205  0.07572169  0.48803337     0.96500
C959        C  0.89929708  0.02097130  0.12002229     0.92900
Al960      Al  0.90001478  0.10282028  0.10593094     1.55600
O961        O  0.92343644  0.02379929  0.02368683    -0.78800
C962        C  0.89861966  0.17254655  0.06473375     0.97100
C963        C  0.83982626  0.08229776  0.09075627     0.92000
O964        O  0.84942573  0.05184739  0.07647812    -0.84100
O965        O  0.61750945  0.44551939  0.19858127    -0.83600
C966        C  0.71208977  0.39570995  0.11611053     0.95800
O967        O  0.70500589  0.37803517  0.14369502    -0.72700
O968        O  0.70457922  0.43479724  0.18473194    -0.76300
Al969      Al  0.67649603  0.39633312  0.17851280     1.49000
C970        C  0.69981848  0.46859713  0.19311869     0.91000
O971        O  0.65388357  0.49490844  0.12327259    -0.82500
O972        O  0.60786742  0.39963163  0.11238868    -0.76100
Al973      Al  0.63743687  0.46661346  0.16068812     1.90100
O974        O  0.64366965  0.45323425  0.08317515    -0.75100
O975        O  0.65339116  0.35198135  0.11800368    -0.75000
O976        O  0.69158909  0.41075299  0.09768109    -0.80600
O977        O  0.65023101  0.35331971  0.17450539    -0.78800
O978        O  0.65443339  0.42314081  0.14857265    -1.15000
O979        O  0.65447896  0.41192895  0.22047440    -0.74200
C980        C  0.63037426  0.43154623  0.22443078     0.96500
C981        C  0.64840332  0.48712517  0.09220042     0.92900
Al982      Al  0.64961230  0.40525479  0.10602365     1.55600
O983        O  0.67349487  0.48376926  0.18819825    -0.78800
C984        C  0.64873335  0.33500104  0.14644935     0.97100
C985        C  0.58949569  0.42514722  0.12196442     0.92000
O986        O  0.59902408  0.45562847  0.13631352    -0.84100
O987        O  0.59864275  0.05083421  0.13692198    -0.83600
C988        C  0.71224611  0.11034086  0.11796492     0.95800
O989        O  0.69199917  0.09505866  0.09932009    -0.72700
O990        O  0.64419774  0.05270410  0.08417045    -0.76300
Al991      Al  0.64989197  0.10067052  0.10693552     1.49000
C992        C  0.64867140  0.01884155  0.09334648     0.91000
O993        O  0.67265731  0.02244307  0.18952806    -0.82500
O994        O  0.65343205  0.09467049  0.22139100    -0.76100
Al995      Al  0.63683688  0.03966767  0.16164652     1.90100
O996        O  0.70377774  0.07143139  0.18636073    -0.75100
O997        O  0.64968034  0.15291681  0.17527705    -0.75000
O998        O  0.70479190  0.12812174  0.14535960    -0.80600
O999        O  0.65352013  0.15392098  0.11881864    -0.78800
O1000       O  0.65411001  0.08299957  0.14959714    -1.15000
O1001       O  0.60812923  0.10644528  0.11260135    -0.74200
C1002       C  0.58947253  0.08138670  0.12242791     0.96500
C1003       C  0.69897901  0.03759897  0.19458718     0.92900
Al1004     Al  0.67587294  0.10992868  0.17974814     1.55600
O1005       O  0.65348455  0.01106385  0.12454535    -0.78800
C1006       C  0.64847961  0.17104334  0.14711267     0.97100
C1007       C  0.62917054  0.07533394  0.22507570     0.92000
O1008       O  0.61664619  0.06104249  0.19916883    -0.84100
C1009       C  0.64185974  0.27307884  0.17803297    -0.15100
C1010       C  0.64398565  0.29322413  0.14673219     0.07000
C1011       C  0.64422582  0.27267789  0.11557657    -0.15100
C1012       C  0.64409084  0.23299662  0.11574889    -0.15100
C1013       C  0.64375090  0.21279652  0.14707857     0.07000
C1014       C  0.64173073  0.23327974  0.17820597    -0.15100
H1015       H  0.64151659  0.28802976  0.20248587     0.11000
H1016       H  0.64569444  0.28723839  0.09098646     0.11000
H1017       H  0.64546815  0.21815459  0.09128190     0.11000
H1018       H  0.64131909  0.21859345  0.20278361     0.11000
C1019       C  0.00303580  0.07941262  0.12935080    -0.15100
C1020       C  0.99482205  0.10726405  0.10489567     0.07000
C1021       C  0.51783532  0.12622414  0.08660246    -0.15100
C1022       C  0.54846438  0.11730246  0.09231254    -0.15100
C1023       C  0.55676174  0.08896972  0.11621754     0.07000
C1024       C  0.53381052  0.07017669  0.13483912    -0.15100
H1025       H  0.98563931  0.06392408  0.14350042     0.11000
H1026       H  0.51216380  0.14745141  0.06739158     0.11000
H1027       H  0.56570948  0.13239070  0.07758180     0.11000
H1028       H  0.53964487  0.04861458  0.15367221     0.11000
C1029       C  0.79821860  0.11753114  0.12068641    -0.15100
C1030       C  0.80700768  0.08881145  0.09738349     0.07000
C1031       C  0.78434759  0.06830329  0.07981563    -0.15100
C1032       C  0.75340461  0.07652208  0.08543391    -0.15100
C1033       C  0.74471864  0.10506961  0.10898787     0.07000
C1034       C  0.76741123  0.12543628  0.12655171    -0.15100
H1035       H  0.81521810  0.13381172  0.13471205     0.11000
H1036       H  0.79053443  0.04625099  0.06159540     0.11000
H1037       H  0.73627208  0.05987656  0.07197731     0.11000
H1038       H  0.76136547  0.14718125  0.14514081     0.11000
C1039       C  0.78347639  0.43842509  0.07687627    -0.15100
C1040       C  0.80644444  0.41892647  0.09485610     0.07000
C1041       C  0.79809891  0.39045422  0.11861387    -0.15100
C1042       C  0.76744209  0.38185378  0.12457117    -0.15100
C1043       C  0.74443483  0.40131471  0.10672258     0.07000
C1044       C  0.75266820  0.42953886  0.08263755    -0.15100
H1045       H  0.78931784  0.46023652  0.05828297     0.11000
H1046       H  0.81532740  0.37490386  0.13295188     0.11000
H1047       H  0.76175493  0.36037547  0.14354814     0.11000
H1048       H  0.73527741  0.44548159  0.06891647     0.11000
C1049       C  0.51729698  0.38164532  0.08607183    -0.15100
C1050       C  0.99448930  0.40194100  0.10350224     0.07000
C1051       C  0.00302358  0.43040294  0.12722511    -0.15100
C1052       C  0.53393574  0.43869553  0.13303912    -0.15100
C1053       C  0.55669699  0.41836200  0.11547508     0.07000
C1054       C  0.54805030  0.38963521  0.09210803    -0.15100
H1055       H  0.51138518  0.35995487  0.06737414     0.11000
H1056       H  0.98580085  0.44696763  0.14061235     0.11000
H1057       H  0.54001578  0.46073301  0.15132207     0.11000
H1058       H  0.56511845  0.37346376  0.07808454     0.11000
C1059       C  0.89284656  0.27412630  0.03260826    -0.15100
C1060       C  0.89316535  0.29461357  0.06382242     0.07000
C1061       C  0.89148877  0.27443716  0.09510324    -0.15100
C1062       C  0.89159112  0.23473658  0.09526139    -0.15100
C1063       C  0.89336739  0.21421343  0.06414518     0.07000
C1064       C  0.89296100  0.23434755  0.03276699    -0.15100
H1065       H  0.89395023  0.28878965  0.50804617     0.11000
H1066       H  0.89139985  0.28930667  0.11960507     0.11000
H1067       H  0.89155986  0.22014285  0.11989073     0.11000
H1068       H  0.89414494  0.21942068  0.50833388     0.11000
C1069       C  0.84172930  0.46363342  0.44856657    -0.15100
C1070       C  0.86948312  0.44313119  0.45060776     0.07000
C1071       C  0.88911873  0.44324619  0.42179911    -0.15100
C1072       C  0.88225034  0.46580270  0.39287129    -0.15100
C1073       C  0.85590020  0.48880157  0.39255714     0.07000
C1074       C  0.83531267  0.48674122  0.42014234    -0.15100
H1075       H  0.82607137  0.46438714  0.47028386     0.11000
H1076       H  0.91087637  0.42847074  0.42273914     0.11000
H1077       H  0.89867901  0.46759389  0.37193569     0.11000
H1078       H  0.81504898  0.50452869  0.42048647     0.11000
C1079       C  0.86072179  0.56357868  0.17187940    -0.15100
C1080       C  0.88107632  0.56526388  0.19998446     0.07000
C1081       C  0.90964395  0.54670735  0.19710468    -0.15100
C1082       C  0.91630235  0.52379688  0.16855464    -0.15100
C1083       C  0.89497416  0.51991474  0.14183447     0.07000
C1084       C  0.86769432  0.54111300  0.14295676    -0.15100
H1085       H  0.83834661  0.57678916  0.17352778     0.11000
H1086       H  0.92581935  0.54722292  0.21833733     0.11000
H1087       H  0.93730962  0.50738613  0.16826798     0.11000
H1088       H  0.85071829  0.53787365  0.12273443     0.11000
C1089       C  0.74544325  0.53411655  0.25169521    -0.15100
C1090       C  0.77523686  0.51820870  0.24983311     0.07000
C1091       C  0.77990283  0.48681699  0.22837699    -0.15100
C1092       C  0.75551005  0.47198675  0.20904407    -0.15100
C1093       C  0.72577096  0.48808321  0.21069422     0.07000
C1094       C  0.72106313  0.51931728  0.23232841    -0.15100
H1095       H  0.74094671  0.55847059  0.26802801     0.11000
H1096       H  0.80248117  0.47434282  0.22586930     0.11000
H1097       H  0.75998811  0.44760426  0.19274117     0.11000
H1098       H  0.69848249  0.53178438  0.23483582     0.11000
C1099       C  0.74457410  0.97240085  0.25341520    -0.15100
C1100       C  0.77425934  0.98871158  0.25194312     0.07000
C1101       C  0.77891644  0.01999757  0.23038434    -0.15100
C1102       C  0.75460173  0.03445296  0.21071873    -0.15100
C1103       C  0.72492271  0.01813391  0.21217290     0.07000
C1104       C  0.72025710  0.98685247  0.23373736    -0.15100
H1105       H  0.74010653  0.94803485  0.26973218     0.11000
H1106       H  0.80143284  0.03269852  0.22808173     0.11000
H1107       H  0.75907357  0.05881013  0.19439192     0.11000
H1108       H  0.69774004  0.97414918  0.23602319     0.11000
C1109       C  0.85717138  0.77323772  0.34516588    -0.15100
C1110       C  0.85662610  0.79387134  0.31408342     0.07000
C1111       C  0.85802072  0.77384679  0.28265802    -0.15100
C1112       C  0.85813669  0.73404705  0.28236290    -0.15100
C1113       C  0.85684963  0.71347146  0.31348685     0.07000
C1114       C  0.85729627  0.73357271  0.34487174    -0.15100
H1115       H  0.85629654  0.78771614  0.36984079     0.11000
H1116       H  0.85773643  0.78888024  0.25825335     0.11000
H1117       H  0.85793522  0.71943324  0.25773774     0.11000
H1118       H  0.85650799  0.71866509  0.36932872     0.11000
C1119       C  0.91597967  0.98880982  0.17400195    -0.15100
C1120       C  0.89596590  0.99062186  0.14588681     0.07000
C1121       C  0.86977534  0.96733195  0.14550990    -0.15100
C1122       C  0.86242985  0.94471725  0.17424228    -0.15100
C1123       C  0.88144312  0.94480831  0.20354717     0.07000
C1124       C  0.90911218  0.96561365  0.20224129    -0.15100
H1125       H  0.93612261  0.00679526  0.17486084     0.11000
H1126       H  0.85379760  0.96891622  0.12412803     0.11000
H1127       H  0.84076264  0.92970257  0.17460235     0.11000
H1128       H  0.92431996  0.96650239  0.22435404     0.11000
C1129       C  0.87875731  0.04280864  0.39496424    -0.15100
C1130       C  0.85385301  0.01744827  0.39609831     0.07000
C1131       C  0.83481445  0.01716948  0.42509590    -0.15100
C1132       C  0.84147184  0.04030761  0.45339818    -0.15100
C1133       C  0.86813743  0.06308696  0.45396634     0.07000
C1134       C  0.88604337  0.06528906  0.42384524    -0.15100
H1135       H  0.89397886  0.04292924  0.37284232     0.11000
H1136       H  0.81565682  0.99764172  0.42652417     0.11000
H1137       H  0.82704423  0.03779898  0.47606970     0.11000
H1138       H  0.90689533  0.08197481  0.42354852     0.11000
C1139       C  0.99456446  0.53539439  0.45795853    -0.15100
C1140       C  0.52427523  0.51914268  0.45913114     0.07000
C1141       C  0.52893239  0.48723576  0.47990306    -0.15100
C1142       C  0.50466877  0.47225422  0.99929686    -0.15100
C1143       C  0.97501040  0.48864567  0.49835807     0.07000
C1144       C  0.97026782  0.52038014  0.47734981    -0.15100
H1145       H  0.99007905  0.56017818  0.44218330     0.11000
H1146       H  0.55144017  0.47445659  0.98186034     0.11000
H1147       H  0.50922712  0.44751546  0.01509934     0.11000
H1148       H  0.94776004  0.53317310  0.47544784     0.11000
C1149       C  0.98323097  0.62618109  0.37421580    -0.15100
C1150       C  0.50627369  0.60697003  0.35618344     0.07000
C1151       C  0.99810093  0.57882963  0.33197920    -0.15100
C1152       C  0.96731066  0.56984050  0.32622495    -0.15100
C1153       C  0.94431205  0.58916268  0.34433021     0.07000
C1154       C  0.95260081  0.61746898  0.36828035    -0.15100
H1155       H  0.98887114  0.64754162  0.39333112     0.11000
H1156       H  0.51552558  0.56304187  0.31815051     0.11000
H1157       H  0.96150414  0.54812064  0.30751846     0.11000
H1158       H  0.93534436  0.63282248  0.38276615     0.11000
C1159       C  0.71690742  0.56929387  0.38318181    -0.15100
C1160       C  0.69409047  0.58956352  0.36565892     0.07000
C1161       C  0.70268946  0.61826479  0.34224473    -0.15100
C1162       C  0.73342890  0.62624952  0.33608894    -0.15100
C1163       C  0.75628710  0.60597789  0.35344203     0.07000
C1164       C  0.74781177  0.57758576  0.37724692    -0.15100
H1165       H  0.71087793  0.54728378  0.40150100     0.11000
H1166       H  0.68559260  0.63440957  0.32825438     0.11000
H1167       H  0.73928877  0.64790414  0.31734513     0.11000
H1168       H  0.76507437  0.56105247  0.39058636     0.11000
C1169       C  0.61174064  0.56387746  0.03813877    -0.15100
C1170       C  0.63086749  0.56390287  0.00891008     0.07000
C1171       C  0.65852521  0.54309161  0.01031317    -0.15100
C1172       C  0.66520716  0.51964836  0.03843159    -0.15100
C1173       C  0.64506281  0.51762653  0.06641992     0.07000
C1174       C  0.61892709  0.54103005  0.06680372    -0.15100
H1175       H  0.59011310  0.57896679  0.03774706     0.11000
H1176       H  0.67386902  0.54233917  0.98831023     0.11000
H1177       H  0.68533978  0.50165686  0.03757328     0.11000
H1178       H  0.60288112  0.53938107  0.08812076     0.11000
C1179       C  0.63104262  0.46641069  0.31677846    -0.15100
C1180       C  0.60514117  0.49019131  0.31649123     0.07000
C1181       C  0.58491745  0.48849541  0.28855633    -0.15100
C1182       C  0.59135909  0.46504811  0.26034416    -0.15100
C1183       C  0.61882705  0.44386041  0.25884175     0.07000
C1184       C  0.63797597  0.44354205  0.28804627    -0.15100
H1185       H  0.64714469  0.46780290  0.33805233     0.11000
H1186       H  0.56494614  0.50676863  0.28779527     0.11000
H1187       H  0.57603122  0.46609536  0.23834374     0.11000
H1188       H  0.65948958  0.42820687  0.28756177     0.11000
C1189       C  0.73268120  0.88042434  0.33705935    -0.15100
C1190       C  0.75549944  0.90035943  0.35480853     0.07000
C1191       C  0.74702719  0.92890383  0.37846144    -0.15100
C1192       C  0.71617937  0.93784289  0.38371679    -0.15100
C1193       C  0.69339506  0.91806412  0.36568719     0.07000
C1194       C  0.70195633  0.88906584  0.34254324    -0.15100
H1195       H  0.73857987  0.85862550  0.31846109     0.11000
H1196       H  0.76427397  0.94515566  0.39212951     0.11000
H1197       H  0.71016390  0.95997940  0.40192419     0.11000
H1198       H  0.68485884  0.87319835  0.32827787     0.11000
C1199       C  0.49688032  0.92904339  0.33396106    -0.15100
C1200       C  0.50534556  0.90112560  0.35822963     0.07000
C1201       C  0.98250948  0.88197263  0.37666116    -0.15100
C1202       C  0.95179490  0.89053481  0.37102540    -0.15100
C1203       C  0.94324760  0.91867356  0.34704646     0.07000
C1204       C  0.96603184  0.93790728  0.32854553    -0.15100
H1205       H  0.51413086  0.94475229  0.31978763     0.11000
H1206       H  0.98837833  0.86076947  0.39581923     0.11000
H1207       H  0.93467462  0.87522540  0.38575364     0.11000
H1208       H  0.96000565  0.95942532  0.30974856     0.11000
C1209       C  0.60814930  0.77407948  0.42893877    -0.15100
C1210       C  0.60757820  0.79435647  0.39763093     0.07000
C1211       C  0.60923945  0.77405663  0.36642108    -0.15100
C1212       C  0.60925807  0.73440230  0.36640479    -0.15100
C1213       C  0.60760767  0.71405738  0.39759642     0.07000
C1214       C  0.60814677  0.73430730  0.42892246    -0.15100
H1215       H  0.60709433  0.78888372  0.45344299     0.11000
H1216       H  0.60916614  0.78878357  0.34185669     0.11000
H1217       H  0.60920550  0.71970583  0.34181776     0.11000
H1218       H  0.60709963  0.71948063  0.45340640     0.11000
C1219       C  0.62832305  0.04339945  0.31813882    -0.15100
C1220       C  0.60325796  0.01830026  0.31740931     0.07000
C1221       C  0.58367117  0.01840978  0.28886957    -0.15100
C1222       C  0.59009273  0.04147906  0.26045545    -0.15100
C1223       C  0.61703144  0.06371121  0.25935887     0.07000
C1224       C  0.63533738  0.06579790  0.28916806    -0.15100
H1225       H  0.64392468  0.04324180  0.33991569     0.11000
H1226       H  0.56434144  0.99911283  0.28779913     0.11000
H1227       H  0.57535818  0.03916756  0.23802123     0.11000
H1228       H  0.65638994  0.08210040  0.28904461     0.11000
C1229       C  0.65955892  0.96306649  0.01148010    -0.15100
C1230       C  0.63157725  0.94303211  0.00943023     0.07000
C1231       C  0.61201368  0.94327675  0.03827989    -0.15100
C1232       C  0.61907104  0.96570716  0.06720333    -0.15100
C1233       C  0.64559842  0.98837093  0.06753972     0.07000
C1234       C  0.66622249  0.98601148  0.03998612    -0.15100
H1235       H  0.67516821  0.96363988  0.48971011     0.11000
H1236       H  0.59011255  0.92882178  0.03733606     0.11000
H1237       H  0.60263968  0.96770793  0.08812197     0.11000
H1238       H  0.68665282  0.00351068  0.03969258     0.11000
C1239       C  0.49514462  0.97278632  0.46009413    -0.15100
C1240       C  0.52491940  0.98885386  0.46140859     0.07000
C1241       C  0.52974781  0.02025907  0.48281168    -0.15100
C1242       C  0.50552353  0.03506555  0.00245966    -0.15100
C1243       C  0.97575496  0.01898306  0.00117922     0.07000
C1244       C  0.97092201  0.98758419  0.47975606    -0.15100
H1245       H  0.99051908  0.94835803  0.44389905     0.11000
H1246       H  0.55232370  0.03282636  0.48497591     0.11000
H1247       H  0.51014387  0.05950030  0.01864469     0.11000
H1248       H  0.94834566  0.97502031  0.47759096     0.11000
O1249       O  0.65142797  0.95571503  0.88676513    -0.83600
C1250       C  0.53779737  0.89562813  0.86717626     0.95800
O1251       O  0.55806780  0.91089338  0.84862739    -0.72700
O1252       O  0.60518217  0.95394308  0.83379941    -0.76300
Al1253     Al  0.60017400  0.90584534  0.85638943     1.49000
C1254       C  0.60096007  0.98779943  0.84323110     0.91000
O1255       O  0.57736373  0.98392271  0.93933785    -0.82500
O1256       O  0.59550332  0.91259270  0.97091589    -0.76100
Al1257     Al  0.61327204  0.96668538  0.91148729     1.90100
O1258       O  0.54567303  0.93559891  0.93481330    -0.75100
O1259       O  0.60007021  0.85414379  0.92527398    -0.75000
O1260       O  0.54524122  0.87795900  0.89457575    -0.80600
O1261       O  0.59717393  0.85263024  0.86867624    -0.78800
O1262       O  0.59582665  0.92355981  0.89905044    -1.15000
O1263       O  0.64201747  0.90053472  0.86172281    -0.74200
C1264       C  0.66063662  0.92546708  0.87182972     0.96500
C1265       C  0.55077270  0.96918972  0.94373090     0.92900
Al1266     Al  0.57368993  0.89689875  0.92905114     1.55600
O1267       O  0.59689383  0.99559113  0.87456649    -0.78800
C1268       C  0.60208261  0.83590740  0.89721811     0.97100
C1269       C  0.62005659  0.93125067  0.97492235     0.92000
O1270       O  0.63328748  0.94475209  0.94908618    -0.84100
O1271       O  0.63275967  0.56336268  0.94864301    -0.83600
C1272       C  0.53859563  0.61263058  0.86561170     0.95800
O1273       O  0.54561661  0.63027952  0.89319891    -0.72700
O1274       O  0.54534217  0.57263233  0.93329276    -0.76300
Al1275     Al  0.57351632  0.61126468  0.92821660     1.49000
C1276       C  0.55030276  0.53897535  0.94202737     0.91000
O1277       O  0.59714324  0.51286547  0.87347445    -0.82500
O1278       O  0.64288482  0.60807547  0.86240160    -0.76100
Al1279     Al  0.61319495  0.54151835  0.91082083     1.90100
O1280       O  0.60674842  0.55460303  0.83318935    -0.75100
O1281       O  0.59774744  0.65578535  0.86842815    -0.75000
O1282       O  0.55915278  0.59751037  0.84733461    -0.80600
O1283       O  0.59994516  0.65412654  0.92506620    -0.78800
O1284       O  0.59603410  0.58473718  0.89842628    -1.15000
O1285       O  0.59482420  0.59516863  0.97053560    -0.74200
C1286       C  0.61934543  0.57638711  0.97455099     0.96500
C1287       C  0.60217270  0.52070073  0.84231733     0.92900
Al1288     Al  0.60112973  0.60265924  0.85599723     1.55600
O1289       O  0.57693759  0.52427165  0.93800602    -0.78800
C1290       C  0.60223532  0.67246621  0.89708325     0.97100
C1291       C  0.66127842  0.58272441  0.87216943     0.92000
O1292       O  0.65174620  0.55239110  0.88670638    -0.84100
O1293       O  0.88277474  0.94562732  0.76382582    -0.83600
C1294       C  0.78789367  0.89510471  0.84557619     0.95800
O1295       O  0.79518353  0.87777107  0.81791363    -0.72700
O1296       O  0.79538228  0.93550695  0.77800430    -0.76300
Al1297     Al  0.82351749  0.89697947  0.78338997     1.49000
C1298       C  0.80024573  0.96922969  0.76943964     0.91000
O1299       O  0.84628673  0.99524654  0.83888589    -0.82500
O1300       O  0.89207647  0.90013728  0.85007243    -0.76100
Al1301     Al  0.86275151  0.96694444  0.80157334     1.90100
O1302       O  0.85558326  0.95323620  0.87901729    -0.75100
O1303       O  0.84703342  0.85221342  0.84334805    -0.75000
O1304       O  0.80822701  0.91030559  0.86411190    -0.80600
O1305       O  0.84991825  0.85410766  0.78678010    -0.78800
O1306       O  0.84561366  0.92349337  0.81354878    -1.15000
O1307       O  0.84531343  0.91326303  0.74151985    -0.74200
C1308       C  0.86971603  0.93235206  0.73779792     0.96500
C1309       C  0.85108272  0.98718962  0.87003651     0.92900
Al1310     Al  0.85027174  0.90534249  0.85596907     1.55600
O1311       O  0.82672199  0.98420106  0.77396818    -0.78800
C1312       C  0.85167536  0.83557669  0.81470265     0.97100
C1313       C  0.91049077  0.92559612  0.84055487     0.92000
O1314       O  0.90105374  0.95601357  0.82608844    -0.84100
O1315       O  0.90240709  0.55188043  0.82249460    -0.83600
C1316       C  0.78865639  0.61110412  0.84386680     0.95800
O1317       O  0.80915111  0.59566588  0.86200427    -0.72700
O1318       O  0.85697395  0.55317454  0.87612994    -0.76300
Al1319     Al  0.85121874  0.60125031  0.85372299     1.49000
C1320       C  0.85288716  0.51929196  0.86676753     0.91000
O1321       O  0.82785351  0.52335391  0.77108647    -0.82500
O1322       O  0.84558976  0.59541992  0.73931874    -0.76100
Al1323     Al  0.86400503  0.54070767  0.79829841     1.90100
O1324       O  0.79621435  0.57172666  0.77566290    -0.75100
O1325       O  0.85018726  0.65368955  0.78530839    -0.75000
O1326       O  0.79575875  0.62888955  0.81640169    -0.80600
O1327       O  0.84761883  0.65455273  0.84190533    -0.78800
O1328       O  0.84656332  0.58376760  0.81104670    -1.15000
O1329       O  0.89298081  0.60697080  0.84777030    -0.74200
C1330       C  0.91159978  0.58201187  0.83765420     0.96500
C1331       C  0.80124349  0.53806085  0.76694675     0.92900
Al1332     Al  0.82405811  0.61056664  0.78147952     1.55600
O1333       O  0.84822497  0.51155698  0.83551817    -0.78800
C1334       C  0.85205160  0.67172774  0.81349465     0.97100
C1335       C  0.86999356  0.57662639  0.73478656     0.92000
O1336       O  0.88345490  0.56266249  0.76027581    -0.84100
O1337       O  0.84837159  0.45612686  0.57293970    -0.83600
C1338       C  0.96209453  0.39675583  0.59409973     0.95800
O1339       O  0.94168138  0.41237926  0.61221841    -0.72700
O1340       O  0.89410174  0.45531864  0.62611636    -0.76300
Al1341     Al  0.89959806  0.40689639  0.60411187     1.49000
C1342       C  0.89820104  0.48909844  0.61639515     0.91000
O1343       O  0.92256908  0.48382519  0.52036348    -0.82500
O1344       O  0.90518804  0.41235712  0.98946436    -0.76100
Al1345     Al  0.88662696  0.46683609  0.54828339     1.90100
O1346       O  0.95452027  0.43592464  0.52601103    -0.75100
O1347       O  0.90038737  0.35425505  0.53577689    -0.75000
O1348       O  0.95487264  0.37876490  0.56678129    -0.80600
O1349       O  0.90293212  0.35342608  0.59241886    -0.78800
O1350       O  0.90418859  0.42404922  0.56134383    -1.15000
O1351       O  0.85780477  0.40122879  0.59842856    -0.74200
C1352       C  0.83917232  0.42609257  0.58821897     0.96500
C1353       C  0.94924424  0.46921550  0.51634776     0.92900
Al1354     Al  0.92664539  0.39714045  0.53182164     1.55600
O1355       O  0.90271188  0.49648941  0.58503142    -0.78800
C1356       C  0.89833861  0.33629009  0.56398258     0.97100
C1357       C  0.88059669  0.43086931  0.98517303     0.92000
O1358       O  0.86695240  0.44392404  0.01093267    -0.84100
O1359       O  0.86738084  0.06250347  0.51422206    -0.83600
C1360       C  0.96246549  0.11273678  0.59550839     0.95800
O1361       O  0.95530955  0.12995724  0.56773227    -0.72700
O1362       O  0.95489033  0.07234995  0.52752198    -0.76300
Al1363     Al  0.92679163  0.11101272  0.53324171     1.49000
C1364       C  0.94991089  0.03865357  0.51890676     0.91000
O1365       O  0.90441683  0.01296751  0.58890718    -0.82500
O1366       O  0.85813585  0.10802431  0.59998282    -0.76100
Al1367     Al  0.88762678  0.04110692  0.55167918     1.90100
O1368       O  0.89463808  0.05490612  0.62900174    -0.75100
O1369       O  0.90330309  0.15593242  0.59335442    -0.75000
O1370       O  0.94202831  0.09784839  0.61410630    -0.80600
O1371       O  0.90053262  0.15404275  0.53680017    -0.78800
O1372       O  0.90474136  0.08459153  0.56351599    -1.15000
O1373       O  0.90464943  0.09484447  0.99146956    -0.74200
C1374       C  0.88021203  0.07572181  0.98803335     0.96500
C1375       C  0.89929709  0.02097124  0.62002228     0.92900
Al1376     Al  0.90001473  0.10282027  0.60593094     1.55600
O1377       O  0.92343643  0.02379928  0.52368679    -0.78800
C1378       C  0.89861962  0.17254654  0.56473375     0.97100
C1379       C  0.83982625  0.08229777  0.59075622     0.92000
O1380       O  0.84942575  0.05184738  0.57647812    -0.84100
O1381       O  0.61750949  0.44551950  0.69858139    -0.83600
C1382       C  0.71208977  0.39571003  0.61611050     0.95800
O1383       O  0.70500591  0.37803532  0.64369505    -0.72700
O1384       O  0.70457928  0.43479722  0.68473212    -0.76300
Al1385     Al  0.67649606  0.39633315  0.67851284     1.49000
C1386       C  0.69981852  0.46859713  0.69311878     0.91000
O1387       O  0.65388357  0.49490841  0.62327264    -0.82500
O1388       O  0.60786744  0.39963177  0.61238865    -0.76100
Al1389     Al  0.63743689  0.46661350  0.66068821     1.90100
O1390       O  0.64366965  0.45323421  0.58317522    -0.75100
O1391       O  0.65339115  0.35198145  0.61800367    -0.75000
O1392       O  0.69158908  0.41075301  0.59768105    -0.80600
O1393       O  0.65023104  0.35331975  0.67450536    -0.78800
O1394       O  0.65443340  0.42314086  0.64857271    -1.15000
O1395       O  0.65447894  0.41192888  0.72047442    -0.74200
C1396       C  0.63037424  0.43154618  0.72443083     0.96500
C1397       C  0.64840333  0.48712511  0.59220046     0.92900
Al1398     Al  0.64961230  0.40525487  0.60602368     1.55600
O1399       O  0.67349492  0.48376923  0.68819829    -0.78800
C1400       C  0.64873335  0.33500111  0.64644931     0.97100
C1401       C  0.58949569  0.42514728  0.62196446     0.92000
O1402       O  0.59902405  0.45562849  0.63631369    -0.84100
O1403       O  0.59864273  0.05083414  0.63692198    -0.83600
C1404       C  0.71224612  0.11034086  0.61796486     0.95800
O1405       O  0.69199918  0.09505861  0.59932005    -0.72700
O1406       O  0.64419773  0.05270401  0.58417043    -0.76300
Al1407     Al  0.64989198  0.10067047  0.60693553     1.49000
C1408       C  0.64867140  0.01884145  0.59334645     0.91000
O1409       O  0.67265734  0.02244304  0.68952803    -0.82500
O1410       O  0.65343209  0.09467046  0.72139100    -0.76100
Al1411     Al  0.63683688  0.03966762  0.66164653     1.90100
O1412       O  0.70377773  0.07143140  0.68636071    -0.75100
O1413       O  0.64968035  0.15291682  0.67527701    -0.75000
O1414       O  0.70479190  0.12812169  0.64535956    -0.80600
O1415       O  0.65352014  0.15392098  0.61881860    -0.78800
O1416       O  0.65411004  0.08299951  0.64959712    -1.15000
O1417       O  0.60812924  0.10644527  0.61260150    -0.74200
C1418       C  0.58947253  0.08138671  0.62242801     0.96500
C1419       C  0.69897903  0.03759898  0.69458715     0.92900
Al1420     Al  0.67587295  0.10992866  0.67974811     1.55600
O1421       O  0.65348454  0.01106375  0.62454534    -0.78800
C1422       C  0.64847962  0.17104335  0.64711262     0.97100
C1423       C  0.62917053  0.07533399  0.72507571     0.92000
O1424       O  0.61664616  0.06104256  0.69916884    -0.84100
C1425       C  0.64185975  0.27307881  0.67803291    -0.15100
C1426       C  0.64398565  0.29322416  0.64673215     0.07000
C1427       C  0.64422583  0.27267795  0.61557652    -0.15100
C1428       C  0.64409085  0.23299664  0.61574883    -0.15100
C1429       C  0.64375089  0.21279654  0.64707852     0.07000
C1430       C  0.64173073  0.23327973  0.67820591    -0.15100
H1431       H  0.64151659  0.28802975  0.70248592     0.11000
H1432       H  0.64569444  0.28723840  0.59098652     0.11000
H1433       H  0.64546815  0.21815467  0.59128195     0.11000
H1434       H  0.64131909  0.21859342  0.70278354     0.11000
C1435       C  0.00303581  0.07941261  0.62935076    -0.15100
C1436       C  0.99482206  0.10726406  0.60489566     0.07000
C1437       C  0.51783532  0.12622416  0.58660245    -0.15100
C1438       C  0.54846440  0.11730252  0.59231254    -0.15100
C1439       C  0.55676175  0.08896975  0.61621756     0.07000
C1440       C  0.53381052  0.07017676  0.63483908    -0.15100
H1441       H  0.98563934  0.06392405  0.64350031     0.11000
H1442       H  0.51216377  0.14745147  0.56739154     0.11000
H1443       H  0.56570949  0.13239081  0.57758191     0.11000
H1444       H  0.53964491  0.04861451  0.65367233     0.11000
C1445       C  0.79821859  0.11753110  0.62068636    -0.15100
C1446       C  0.80700768  0.08881141  0.59738346     0.07000
C1447       C  0.78434760  0.06830322  0.57981563    -0.15100
C1448       C  0.75340462  0.07652201  0.58543392    -0.15100
C1449       C  0.74471864  0.10506959  0.60898782     0.07000
C1450       C  0.76741123  0.12543633  0.62655166    -0.15100
H1451       H  0.81521816  0.13381174  0.63471206     0.11000
H1452       H  0.79053444  0.04625092  0.56159538     0.11000
H1453       H  0.73627208  0.05987648  0.57197732     0.11000
H1454       H  0.76136551  0.14718120  0.64514057     0.11000
C1455       C  0.78347633  0.43842524  0.57687624    -0.15100
C1456       C  0.80644441  0.41892663  0.59485608     0.07000
C1457       C  0.79809890  0.39045435  0.61861384    -0.15100
C1458       C  0.76744211  0.38185382  0.62457106    -0.15100
C1459       C  0.74443482  0.40131472  0.60672252     0.07000
C1460       C  0.75266815  0.42953894  0.58263755    -0.15100
H1461       H  0.78931772  0.46023662  0.55828298     0.11000
H1462       H  0.81532743  0.37490405  0.63295190     0.11000
H1463       H  0.76175494  0.36037539  0.64354813     0.11000
H1464       H  0.73527733  0.44548168  0.56891653     0.11000
C1465       C  0.51729698  0.38164529  0.58607181    -0.15100
C1466       C  0.99448930  0.40194102  0.60350220     0.07000
C1467       C  0.00302359  0.43040294  0.62722508    -0.15100
C1468       C  0.53393574  0.43869557  0.63303905    -0.15100
C1469       C  0.55669700  0.41836201  0.61547507     0.07000
C1470       C  0.54805033  0.38963516  0.59210803    -0.15100
H1471       H  0.51138518  0.35995485  0.56737417     0.11000
H1472       H  0.98580083  0.44696762  0.64061239     0.11000
H1473       H  0.54001576  0.46073308  0.65132193     0.11000
H1474       H  0.56511840  0.37346376  0.57808459     0.11000
C1475       C  0.89284656  0.27412625  0.53260825    -0.15100
C1476       C  0.89316535  0.29461354  0.56382239     0.07000
C1477       C  0.89148877  0.27443714  0.59510324    -0.15100
C1478       C  0.89159112  0.23473656  0.59526140    -0.15100
C1479       C  0.89336740  0.21421341  0.56414521     0.07000
C1480       C  0.89296100  0.23434750  0.53276700    -0.15100
H1481       H  0.89395022  0.28878972  0.00804622     0.11000
H1482       H  0.89139986  0.28930668  0.61960505     0.11000
H1483       H  0.89155985  0.22014284  0.61989078     0.11000
H1484       H  0.89414495  0.21942072  0.00833380     0.11000
C1485       C  0.84172929  0.46363339  0.94856656    -0.15100
C1486       C  0.86948316  0.44313130  0.95060779     0.07000
C1487       C  0.88911874  0.44324634  0.92179912    -0.15100
C1488       C  0.88225031  0.46580281  0.89287127    -0.15100
C1489       C  0.85590013  0.48880161  0.89255711     0.07000
C1490       C  0.83531259  0.48674115  0.92014231    -0.15100
H1491       H  0.82607136  0.46438709  0.97028386     0.11000
H1492       H  0.91087647  0.42847086  0.92273912     0.11000
H1493       H  0.89867894  0.46759406  0.87193568     0.11000
H1494       H  0.81504888  0.50452861  0.92048649     0.11000
C1495       C  0.86072186  0.56357861  0.67187940    -0.15100
C1496       C  0.88107636  0.56526380  0.69998447     0.07000
C1497       C  0.90964399  0.54670721  0.69710476    -0.15100
C1498       C  0.91630240  0.52379678  0.66855465    -0.15100
C1499       C  0.89497419  0.51991469  0.64183449     0.07000
C1500       C  0.86769434  0.54111291  0.64295677    -0.15100
H1501       H  0.83834665  0.57678914  0.67352775     0.11000
H1502       H  0.92581928  0.54722273  0.71833728     0.11000
H1503       H  0.93730959  0.50738614  0.66826796     0.11000
H1504       H  0.85071831  0.53787357  0.62273444     0.11000
C1505       C  0.74544326  0.53411651  0.75169523    -0.15100
C1506       C  0.77523687  0.51820864  0.74983311     0.07000
C1507       C  0.77990286  0.48681694  0.72837697    -0.15100
C1508       C  0.75551007  0.47198681  0.70904398    -0.15100
C1509       C  0.72577099  0.48808329  0.71069418     0.07000
C1510       C  0.72106313  0.51931728  0.73232844    -0.15100
H1511       H  0.74094674  0.55847051  0.76802807     0.11000
H1512       H  0.80248108  0.47434273  0.72586930     0.11000
H1513       H  0.75998810  0.44760439  0.69274112     0.11000
H1514       H  0.69848245  0.53178432  0.73483593     0.11000
C1515       C  0.74457410  0.97240081  0.75341514    -0.15100
C1516       C  0.77425933  0.98871156  0.75194315     0.07000
C1517       C  0.77891644  0.01999763  0.73038446    -0.15100
C1518       C  0.75460177  0.03445297  0.71071873    -0.15100
C1519       C  0.72492273  0.01813396  0.71217289     0.07000
C1520       C  0.72025711  0.98685255  0.73373735    -0.15100
H1521       H  0.74010652  0.94803477  0.76973202     0.11000
H1522       H  0.80143276  0.03269859  0.72808195     0.11000
H1523       H  0.75907365  0.05881010  0.69439183     0.11000
H1524       H  0.69773997  0.97414926  0.73602316     0.11000
C1525       C  0.85717138  0.77323770  0.84516584    -0.15100
C1526       C  0.85662610  0.79387136  0.81408339     0.07000
C1527       C  0.85802072  0.77384679  0.78265799    -0.15100
C1528       C  0.85813669  0.73404702  0.78236286    -0.15100
C1529       C  0.85684963  0.71347145  0.81348683     0.07000
C1530       C  0.85729628  0.73357269  0.84487173    -0.15100
H1531       H  0.85629654  0.78771616  0.86984084     0.11000
H1532       H  0.85773643  0.78888023  0.75825330     0.11000
H1533       H  0.85793523  0.71943325  0.75773782     0.11000
H1534       H  0.85650800  0.71866511  0.86932860     0.11000
C1535       C  0.91597966  0.98880988  0.67400195    -0.15100
C1536       C  0.89596591  0.99062183  0.64588679     0.07000
C1537       C  0.86977536  0.96733192  0.64550986    -0.15100
C1538       C  0.86242987  0.94471737  0.67424227    -0.15100
C1539       C  0.88144309  0.94480842  0.70354716     0.07000
C1540       C  0.90911220  0.96561368  0.70224126    -0.15100
H1541       H  0.93612254  0.00679538  0.67486086     0.11000
H1542       H  0.85379763  0.96891616  0.62412797     0.11000
H1543       H  0.84076240  0.92970259  0.67460238     0.11000
H1544       H  0.92432000  0.96650239  0.72435400     0.11000
C1545       C  0.87875727  0.04280876  0.89496420    -0.15100
C1546       C  0.85385303  0.01744827  0.89609831     0.07000
C1547       C  0.83481448  0.01716954  0.92509588    -0.15100
C1548       C  0.84147183  0.04030763  0.95339818    -0.15100
C1549       C  0.86813738  0.06308708  0.95396632     0.07000
C1550       C  0.88604325  0.06528923  0.92384518    -0.15100
H1551       H  0.89397881  0.04292935  0.87284230     0.11000
H1552       H  0.81565671  0.99764164  0.92652413     0.11000
H1553       H  0.82704429  0.03779894  0.97606971     0.11000
H1554       H  0.90689528  0.08197511  0.92354845     0.11000
C1555       C  0.99456445  0.53539432  0.95795846    -0.15100
C1556       C  0.52427525  0.51914266  0.95913115     0.07000
C1557       C  0.52893242  0.48723584  0.97990319    -0.15100
C1558       C  0.50466877  0.47225426  0.49929686    -0.15100
C1559       C  0.97501040  0.48864566  0.99835809     0.07000
C1560       C  0.97026783  0.52038010  0.97734979    -0.15100
H1561       H  0.99007905  0.56017806  0.94218321     0.11000
H1562       H  0.55144010  0.47445647  0.48186011     0.11000
H1563       H  0.50922717  0.44751550  0.51509947     0.11000
H1564       H  0.94775997  0.53317311  0.97544781     0.11000
C1565       C  0.98323096  0.62618106  0.87421600    -0.15100
C1566       C  0.50627365  0.60696999  0.85618355     0.07000
C1567       C  0.99810091  0.57882966  0.83197928    -0.15100
C1568       C  0.96731063  0.56984055  0.82622505    -0.15100
C1569       C  0.94431203  0.58916274  0.84433029     0.07000
C1570       C  0.95260073  0.61746906  0.86828052    -0.15100
H1571       H  0.98887109  0.64754146  0.89333130     0.11000
H1572       H  0.51552546  0.56304192  0.81815059     0.11000
H1573       H  0.96150412  0.54812073  0.80751857     0.11000
H1574       H  0.93534454  0.63282238  0.88276608     0.11000
C1575       C  0.71690742  0.56929384  0.88318181    -0.15100
C1576       C  0.69409047  0.58956352  0.86565890     0.07000
C1577       C  0.70268944  0.61826477  0.84224469    -0.15100
C1578       C  0.73342887  0.62624960  0.83608892    -0.15100
C1579       C  0.75628708  0.60597794  0.85344199     0.07000
C1580       C  0.74781175  0.57758584  0.87724687    -0.15100
H1581       H  0.71087800  0.54728390  0.90150083     0.11000
H1582       H  0.68559255  0.63440954  0.82825428     0.11000
H1583       H  0.73928872  0.64790421  0.81734520     0.11000
H1584       H  0.76507446  0.56105248  0.89058642     0.11000
C1585       C  0.61174065  0.56387737  0.53813874    -0.15100
C1586       C  0.63086750  0.56390276  0.50891003     0.07000
C1587       C  0.65852521  0.54309150  0.51031312    -0.15100
C1588       C  0.66520719  0.51964824  0.53843156    -0.15100
C1589       C  0.64506280  0.51762642  0.56641991     0.07000
C1590       C  0.61892712  0.54102996  0.56680367    -0.15100
H1591       H  0.59011315  0.57896674  0.53774703     0.11000
H1592       H  0.67386901  0.54233908  0.48831021     0.11000
H1593       H  0.68533974  0.50165686  0.53757329     0.11000
H1594       H  0.60288111  0.53938103  0.58812087     0.11000
C1595       C  0.63104264  0.46641077  0.81677840    -0.15100
C1596       C  0.60514119  0.49019136  0.81649118     0.07000
C1597       C  0.58491746  0.48849554  0.78855627    -0.15100
C1598       C  0.59135911  0.46504820  0.76034413    -0.15100
C1599       C  0.61882702  0.44386037  0.75884178     0.07000
C1600       C  0.63797596  0.44354202  0.78804628    -0.15100
H1601       H  0.64714469  0.46780299  0.83805227     0.11000
H1602       H  0.56494623  0.50676867  0.78779526     0.11000
H1603       H  0.57603124  0.46609545  0.73834373     0.11000
H1604       H  0.65948952  0.42820678  0.78756182     0.11000
C1605       C  0.73268121  0.88042429  0.83705936    -0.15100
C1606       C  0.75549943  0.90035941  0.85480854     0.07000
C1607       C  0.74702719  0.92890391  0.87846137    -0.15100
C1608       C  0.71617936  0.93784295  0.88371670    -0.15100
C1609       C  0.69339506  0.91806409  0.86568718     0.07000
C1610       C  0.70195632  0.88906577  0.84254322    -0.15100
H1611       H  0.73857989  0.85862544  0.81846111     0.11000
H1612       H  0.76427389  0.94515571  0.89212937     0.11000
H1613       H  0.71016390  0.95997950  0.90192404     0.11000
H1614       H  0.68485891  0.87319834  0.82827790     0.11000
C1615       C  0.49688035  0.92904347  0.83396101    -0.15100
C1616       C  0.50534557  0.90112564  0.85822960     0.07000
C1617       C  0.98250947  0.88197276  0.87666111    -0.15100
C1618       C  0.95179490  0.89053494  0.87102541    -0.15100
C1619       C  0.94324760  0.91867365  0.84704643     0.07000
C1620       C  0.96603184  0.93790734  0.82854546    -0.15100
H1621       H  0.51413080  0.94475229  0.81978768     0.11000
H1622       H  0.98837835  0.86076946  0.89581932     0.11000
H1623       H  0.93467463  0.87522557  0.88575365     0.11000
H1624       H  0.96000568  0.95942528  0.80974849     0.11000
C1625       C  0.60814931  0.77407943  0.92893874    -0.15100
C1626       C  0.60757821  0.79435650  0.89763094     0.07000
C1627       C  0.60923946  0.77405669  0.86642108    -0.15100
C1628       C  0.60925806  0.73440237  0.86640477    -0.15100
C1629       C  0.60760767  0.71405736  0.89759636     0.07000
C1630       C  0.60814677  0.73430726  0.92892241    -0.15100
H1631       H  0.60709432  0.78888369  0.95344308     0.11000
H1632       H  0.60916615  0.78878367  0.84185670     0.11000
H1633       H  0.60920550  0.71970590  0.84181761     0.11000
H1634       H  0.60709963  0.71948055  0.95340634     0.11000
C1635       C  0.62832305  0.04339953  0.81813885    -0.15100
C1636       C  0.60325796  0.01830032  0.81740938     0.07000
C1637       C  0.58367117  0.01840981  0.78886965    -0.15100
C1638       C  0.59009273  0.04147909  0.76045551    -0.15100
C1639       C  0.61703145  0.06371120  0.75935889     0.07000
C1640       C  0.63533742  0.06579787  0.78916804    -0.15100
H1641       H  0.64392473  0.04324190  0.83991572     0.11000
H1642       H  0.56434152  0.99911281  0.78779921     0.11000
H1643       H  0.57535816  0.03916756  0.73802131     0.11000
H1644       H  0.65639001  0.08210031  0.78904453     0.11000
C1645       C  0.65955893  0.96306641  0.51148007    -0.15100
C1646       C  0.63157726  0.94303205  0.50943022     0.07000
C1647       C  0.61201367  0.94327666  0.53827986    -0.15100
C1648       C  0.61907105  0.96570706  0.56720332    -0.15100
C1649       C  0.64559843  0.98837083  0.56753970     0.07000
C1650       C  0.66622248  0.98601139  0.53998609    -0.15100
H1651       H  0.67516825  0.96363993  0.98971013     0.11000
H1652       H  0.59011260  0.92882179  0.53733601     0.11000
H1653       H  0.60263968  0.96770785  0.58812193     0.11000
H1654       H  0.68665287  0.00351070  0.53969252     0.11000
C1655       C  0.49514463  0.97278636  0.96009417    -0.15100
C1656       C  0.52491942  0.98885390  0.96140862     0.07000
C1657       C  0.52974785  0.02025916  0.98281165    -0.15100
C1658       C  0.50552346  0.03506546  0.50245961    -0.15100
C1659       C  0.97575496  0.01898300  0.50117923     0.07000
C1660       C  0.97092202  0.98758430  0.97975604    -0.15100
H1661       H  0.99051910  0.94835802  0.94389914     0.11000
H1662       H  0.55232368  0.03282641  0.98497584     0.11000
H1663       H  0.51014380  0.05950043  0.51864471     0.11000
H1664       H  0.94834559  0.97502040  0.97759092     0.11000
loop_ 
_geom_bond_atom_site_label_1 
_geom_bond_atom_site_label_2 
_geom_bond_distance 
_geom_bond_site_symmetry_2 
_ccdc_geom_bond_type 
O1           C16   1.277       .  A
O1           Al9   1.958       .  S
C2           O12   1.272       .  A
C2            O3   1.259       .  A
C2          C368   1.470       .  S
O3           Al5   1.870       .  S
O4            C6   1.261       .  A
O4           Al5   1.919       .  S
Al5          O13   1.939       .  S
Al5          O15   1.846       .  S
Al5          O14   1.775       .  S
C6           O19   1.256       .  A
C6          C388   1.471   1_565  S
O7           C17   1.282       .  A
O7           Al9   1.996       .  S
O8           C21   1.266       .  A
O8          Al18   1.958       .  S
Al9          O22   1.865       .  S
Al9          O19   1.895       .  S
Al9          O14   1.766       .  S
O10          C17   1.253       .  A
O10         Al18   1.845       .  S
O11          C20   1.264       .  A
O11         Al18   1.901       .  S
O12         Al18   1.940       .  S
O13          C20   1.270       .  A
O14         Al18   1.778       .  S
O15          C16   1.259       .  A
C16         C361   1.472       .  S
C17         C408   1.490       .  S
C20         C378   1.484       .  S
C21          O22   1.248       .  A
C21         C814   1.486       .  S
O23          C38   1.248       .  A
O23         Al31   1.861       .  S
C24          O34   1.260       .  A
C24          O25   1.273       .  A
C24         C318   1.470       .  S
O25         Al27   1.941       .  S
O26          C28   1.252       .  A
O26         Al27   1.844       .  S
Al27         O35   1.904       .  S
Al27         O37   1.967       .  S
Al27         O36   1.779       .  S
C28          O41   1.282       .  A
C28         C308   1.488       .  S
O29          C39   1.256       .  A
O29         Al31   1.897       .  S
O30          C43   1.259       .  A
O30         Al40   1.848       .  S
Al31         O44   1.961       .  S
Al31         O41   1.994       .  S
Al31         O36   1.764       .  S
O32          C39   1.262       .  A
O32         Al40   1.925       .  S
O33          C42   1.270       .  A
O33         Al40   1.938       .  S
O34         Al40   1.870       .  S
O35          C42   1.265       .  A
O36         Al40   1.773       .  S
O37          C38   1.267       .  A
C38         C754   1.488       .  S
C39         C348   1.473       .  S
C42         C381   1.484       .  S
C43          O44   1.277       .  A
C43         C328   1.473       .  S
O45          C60   1.248       .  A
O45         Al53   1.860       .  S
C46          O56   1.260       .  A
C46          O47   1.273       .  A
C46         C358   1.469       .  S
O47         Al49   1.942       .  S
O48          C50   1.252       .  A
O48         Al49   1.842       .  S
Al49         O57   1.904       .  S
Al49         O59   1.964       .  S
Al49         O58   1.778       .  S
C50          O63   1.282       .  A
C50         C268   1.488       .  S
O51          C61   1.256       .  A
O51         Al53   1.896       .  S
O52          C65   1.259       .  A
O52         Al62   1.847       .  S
Al53         O66   1.960       .  S
Al53         O63   1.995       .  S
Al53         O58   1.766       .  S
O54          C61   1.261       .  A
O54         Al62   1.922       .  S
O55          C64   1.270       .  A
O55         Al62   1.940       .  S
O56         Al62   1.869       .  S
O57          C64   1.265       .  A
O58         Al62   1.773       .  S
O59          C60   1.267       .  A
C60         C291   1.487       .  S
C61         C298   1.472   1_565  S
C64         C278   1.486       .  S
C65          O66   1.277       .  A
C65         C371   1.471       .  S
O67          C82   1.277       .  A
O67         Al75   1.959       .  S
C68          O78   1.272       .  A
C68          O69   1.260       .  A
C68         C331   1.471       .  S
O69         Al71   1.873       .  S
O70          C72   1.260       .  A
O70         Al71   1.920       .  S
Al71         O79   1.940       .  S
Al71         O81   1.847       .  S
Al71         O80   1.774       .  S
C72          O85   1.256       .  A
C72         C241   1.472       .  S
O73          C83   1.281       .  A
O73         Al75   1.992       .  S
O74          C87   1.266       .  A
O74         Al84   1.956       .  S
Al75         O88   1.866       .  S
Al75         O85   1.898       .  S
Al75         O80   1.767       .  S
O76          C83   1.253       .  A
O76         Al84   1.843       .  S
O77          C86   1.265       .  A
O77         Al84   1.905       .  S
O78         Al84   1.941       .  S
O79          C86   1.270       .  A
O80         Al84   1.779       .  S
O81          C82   1.259       .  A
C82         C321   1.472       .  S
C83         C258   1.488       .  S
C86         C281   1.486       .  S
C87          O88   1.249       .  A
C87         C248   1.486       .  S
O89         C104   1.277       .  A
O89         Al97   1.959       .  S
C90         O100   1.272       .  A
C90          O91   1.260       .  A
C90         C218   1.470       .  S
O91         Al93   1.872       .  S
O92          C94   1.261       .  A
O92         Al93   1.922       .  S
Al93        O101   1.943       .  S
Al93        O103   1.847       .  S
Al93        O102   1.773       .  S
C94         O107   1.257       .  A
C94         C251   1.472       .  S
O95         C105   1.282       .  A
O95         Al97   1.996       .  S
O96         C109   1.266       .  A
O96        Al522   1.962       .  S
Al97        O107   1.899       .  S
Al97        O526   1.864       .  S
Al97        O102   1.765       .  S
O98         C105   1.253       .  A
O98        Al106   1.843       .  S
O99         C108   1.265       .  A
O99        Al106   1.902       .  S
O100       Al106   1.941       .  S
O101        C108   1.271       .  A
O102       Al106   1.778       .  S
O103        C104   1.259       .  A
C104        C208   1.472       .  S
C105        C727   1.489   1_554  S
Al106       O512   1.962   1_554  S
C108        C228   1.486       .  S
C109        O110   1.249       .  A
C109        C238   1.487       .  S
O110       Al513   1.864       .  S
O111        C542   1.248   1_554  A
O111       Al119   1.857       .  S
C112        O122   1.260       .  A
C112        O113   1.273       .  A
C112        C188   1.470       .  S
O113       Al115   1.943       .  S
O114        C116   1.252       .  A
O114       Al115   1.846       .  S
Al115       O123   1.905       .  S
Al115       O541   1.967   1_554  S
Al115       O124   1.779       .  S
C116        O129   1.281       .  A
C116        C411   1.490       .  S
O117        C127   1.256       .  A
O117       Al119   1.896       .  S
O118        C131   1.260       .  A
O118       Al128   1.850       .  S
Al119       O132   1.960       .  S
Al119       O129   1.996       .  S
Al119       O124   1.765       .  S
O120        C127   1.262       .  A
O120       Al128   1.924       .  S
O121        C130   1.269       .  A
O121       Al128   1.939       .  S
O122       Al128   1.868       .  S
O123        C130   1.265       .  A
O124       Al128   1.774       .  S
O125        C126   1.268       .  A
O125       Al531   1.967       .  S
C126        O527   1.248       .  A
C126        C301   1.488       .  S
C127        C288   1.472   1_545  S
C130        C231   1.486       .  S
C131        O132   1.277       .  A
C131        C198   1.472       .  S
O133        C148   1.248       .  A
O133       Al141   1.859       .  S
C134        O144   1.261       .  A
C134        O135   1.274       .  A
C134        C211   1.470       .  S
O135       Al137   1.943       .  S
O136        C138   1.252       .  A
O136       Al137   1.842       .  S
Al137       O145   1.906       .  S
Al137       O147   1.965       .  S
Al137       O146   1.778       .  S
C138        O151   1.281       .  A
C138        C261   1.488       .  S
O139        C149   1.256       .  A
O139       Al141   1.899       .  S
O140        C153   1.260       .  A
O140       Al150   1.848       .  S
Al141       O154   1.961       .  S
Al141       O151   1.993       .  S
Al141       O146   1.765       .  S
O142        C149   1.261       .  A
O142       Al150   1.926       .  S
O143        C152   1.269       .  A
O143       Al150   1.941       .  S
O144       Al150   1.869       .  S
O145        C152   1.264       .  A
O146       Al150   1.775       .  S
O147        C148   1.268       .  A
C148        C351   1.488       .  S
C149        C341   1.474       .  S
C152        C178   1.487       .  S
C153        O154   1.278       .  A
C153        C221   1.472       .  S
O155        C170   1.278       .  A
O155       Al163   1.961       .  S
C156        O166   1.273       .  A
C156        O157   1.261       .  A
C156        C201   1.470       .  S
O157       Al159   1.871       .  S
O158        C160   1.260       .  A
O158       Al159   1.922       .  S
Al159       O167   1.938       .  S
Al159       O169   1.846       .  S
Al159       O168   1.774       .  S
C160        O173   1.256       .  A
C160        C401   1.472   1_545  S
O161        C171   1.281       .  A
O161       Al163   1.994       .  S
O162        C175   1.267       .  A
O162       Al172   1.960       .  S
Al163       O176   1.857       .  S
Al163       O173   1.898       .  S
Al163       O168   1.765       .  S
O164        C171   1.252       .  A
O164       Al172   1.841       .  S
O165        C174   1.264       .  A
O165       Al172   1.905       .  S
O166       Al172   1.942       .  S
O167        C174   1.269       .  A
O168       Al172   1.778       .  S
O169        C170   1.259       .  A
C170        C191   1.471       .  S
C171        C271   1.488       .  S
C174        C181   1.486       .  S
C175        O176   1.248       .  A
C175        C391   1.486       .  S
C177        C178   1.407       .  A
C177        C182   1.402       .  A
C177        H183   1.083       .  S
C178        C179   1.406       .  A
C179        C180   1.398       .  A
C179        H184   1.083       .  S
C180        C181   1.406       .  A
C180        H185   1.083       .  S
C181        C182   1.407       .  A
C182        H186   1.083       .  S
C187        C188   1.410       .  A
C187       C1024   1.398       .  A
C187        H193   1.083       .  S
C188       C1021   1.398       .  A
C189        C190   1.390       .  A
C189       C1020   1.398   1_455  A
C189        H194   1.083       .  S
C190        C191   1.408       .  A
C190        H195   1.083       .  S
C191        C192   1.400       .  A
C192       C1019   1.398       .  A
C192        H196   1.083       .  S
C197        C198   1.408       .  A
C197        C202   1.391       .  A
C197        H203   1.083       .  S
C198        C199   1.400       .  A
C199        C200   1.397       .  A
C199        H204   1.083       .  S
C200        C201   1.409       .  A
C200        H205   1.083       .  S
C201        C202   1.399       .  A
C202        H206   1.083       .  S
C207        C208   1.400       .  A
C207        C212   1.398       .  A
C207        H213   1.083       .  S
C208        C209   1.409       .  A
C209        C210   1.390       .  A
C209        H214   1.083       .  S
C210        C211   1.398       .  A
C210        H215   1.083       .  S
C211        C212   1.410       .  A
C212        H216   1.083       .  S
C217        C222   1.390       .  A
C217       C1050   1.398   1_455  A
C217        H223   1.083       .  S
C218        C219   1.409       .  A
C218       C1049   1.398       .  A
C219       C1052   1.398       .  A
C219        H224   1.083       .  S
C220        C221   1.400       .  A
C220       C1051   1.398       .  A
C220        H225   1.083       .  S
C221        C222   1.408       .  A
C222        H226   1.083       .  S
C227        C228   1.407       .  A
C227        C232   1.402       .  A
C227        H649   1.083       .  S
C228        C229   1.406       .  A
C229        C230   1.399       .  A
C229        H234   1.083       .  S
C230        C231   1.406       .  A
C230        H235   1.083       .  S
C231        C232   1.406       .  A
C232        H652   1.083       .  S
H233        C643   1.083       .  S
H236        C648   1.083       .  S
C237        C238   1.412       .  A
C237        C242   1.397       .  A
C237        H243   1.083       .  S
C238        C239   1.406       .  A
C239        C240   1.405       .  A
C239        H244   1.083       .  S
C240        C241   1.406       .  A
C240        H245   1.083       .  S
C241        C242   1.397       .  A
C242        H246   1.084       .  S
C247        C248   1.405       .  A
C247        C252   1.404       .  A
C247        H253   1.083       .  S
C248        C249   1.412       .  A
C249        C250   1.398       .  A
C249        H254   1.083       .  S
C250        C251   1.398       .  A
C250        H255   1.084       .  S
C251        C252   1.406       .  A
C252        H256   1.083       .  S
C257        C258   1.417       .  A
C257        C262   1.401       .  A
C257        H263   1.083       .  S
C258        C259   1.398       .  A
C259        C260   1.402       .  A
C259        H264   1.083       .  S
C260        C261   1.417       .  A
C260        H265   1.083       .  S
C261        C262   1.398       .  A
C262        H266   1.083       .  S
C267        C268   1.418       .  A
C267        C272   1.402       .  A
C267        H273   1.083       .  S
C268        C269   1.397   1_565  A
C269        C270   1.401       .  A
C269        H274   1.083       .  S
C270        C271   1.418       .  A
C270        H275   1.083       .  S
C271        C272   1.397   1_545  A
C272        H276   1.083       .  S
C277        C278   1.406       .  A
C277        C282   1.398       .  A
C277        H283   1.083       .  S
C278        C279   1.407       .  A
C279        C280   1.402       .  A
C279        H284   1.083       .  S
C280        C281   1.407       .  A
C280        H285   1.083       .  S
C281        C282   1.406       .  A
C282        H286   1.083       .  S
C287        C288   1.396       .  A
C287        C292   1.397       .  A
C287        H293   1.084   1_565  S
C288        C289   1.407       .  A
C289        C290   1.405       .  A
C289        H294   1.083       .  S
C290        C291   1.405       .  A
C290        H295   1.083       .  S
C291        C292   1.413       .  A
C292        H296   1.083       .  S
C297        C298   1.407       .  A
C297        C302   1.406       .  A
C297        H303   1.083       .  S
C298        C299   1.396       .  A
C299        C300   1.396       .  A
C299        H304   1.084   1_545  S
C300        C301   1.413       .  A
C300        H305   1.083       .  S
C301        C302   1.405       .  A
C302        H306   1.083       .  S
C307        C312   1.402       .  A
C307       C1140   1.418       .  A
C307        H313   1.083       .  S
C308        C309   1.397       .  A
C308       C1139   1.418   1_455  A
C309        C726   1.401       .  A
C309        H730   1.083       .  S
C310        C725   1.401       .  A
C310       C1559   1.417   1_455  A
C310        H315   1.083   1_556  S
C311        C521   1.489       .  S
C311        C312   1.398       .  A
C311       C1558   1.417       .  A
C312        H316   1.083       .  S
H314        C725   1.083       .  S
C317        C322   1.390       .  A
C317       C1150   1.398       .  A
C317        H323   1.083       .  S
C318       C1149   1.398   1_455  A
C318       C1151   1.410   1_455  A
C319        C320   1.398       .  A
C319       C1150   1.410       .  A
C319       H1156   1.083       .  S
C320        C321   1.400       .  A
C320        H325   1.083       .  S
C321        C322   1.408       .  A
C322        H326   1.083       .  S
H324       C1151   1.083   1_455  S
C327        C328   1.400       .  A
C327        C332   1.398       .  A
C327        H333   1.083       .  S
C328        C329   1.409       .  A
C329        C330   1.390       .  A
C329        H334   1.083       .  S
C330        C331   1.399       .  A
C330        H335   1.083       .  S
C331        C332   1.409       .  A
C332        H336   1.083       .  S
C337        C338   1.405       .  A
C337        C342   1.406       .  A
C337        H343   1.083       .  S
C338        C454   1.488   1_554  S
C338        C339   1.413       .  A
C339        C340   1.397       .  A
C339        H344   1.083   1_554  S
C340        C341   1.396       .  A
C340        H345   1.084       .  S
C341        C342   1.407       .  A
C342        H346   1.083       .  S
C347        C348   1.407       .  A
C347        C352   1.406       .  A
C347        H353   1.083       .  S
C348        C349   1.396       .  A
C349        C350   1.397       .  A
C349        H354   1.084       .  S
C350        C351   1.413       .  A
C350        H355   1.083       .  S
C351        C352   1.405       .  A
C352        H356   1.083       .  S
C357        C358   1.398       .  A
C357        C362   1.391       .  A
C357        H363   1.083       .  S
C358        C359   1.409       .  A
C359        C360   1.397       .  A
C359        H364   1.083       .  S
C360        C361   1.400       .  A
C360        H365   1.083       .  S
C361        C362   1.409       .  A
C362        H366   1.083       .  S
C367        C368   1.409   1_655  A
C367       C1204   1.397       .  A
C367        H373   1.083   1_655  S
C368       C1201   1.399   1_455  A
C369        C370   1.391       .  A
C369       C1200   1.399       .  A
C369        H374   1.083       .  S
C370        C371   1.408       .  A
C370        H375   1.083       .  S
C371        C372   1.400       .  A
C372       C1199   1.397       .  A
C372        H376   1.083       .  S
C377        C378   1.407       .  A
C377        C382   1.401       .  A
C377        H383   1.083       .  S
C378        C379   1.405       .  A
C379        C380   1.397       .  A
C379        H384   1.083       .  S
C380        C381   1.406       .  A
C380        H385   1.083       .  S
C381        C382   1.407       .  A
C382        H386   1.083       .  S
C387        C388   1.406       .  A
C387        C392   1.405       .  A
C387        H393   1.083       .  S
C388        C389   1.396       .  A
C389        C390   1.396       .  A
C389        H394   1.084   1_545  S
C390        C391   1.413       .  A
C390        H395   1.083       .  S
C391        C392   1.405       .  A
C392        H396   1.083       .  S
C397        C398   1.412       .  A
C397        C402   1.398       .  A
C397        H819   1.083   1_554  S
C398        C437   1.486   1_554  S
C398        C399   1.405       .  A
C399        C400   1.404       .  A
C399        H404   1.083       .  S
C400        C401   1.406       .  A
C400        H405   1.083       .  S
C401        C402   1.397       .  A
C402        H406   1.084   1_565  S
H403        C813   1.083       .  S
C407        C408   1.418   1_655  A
C407       C1244   1.402       .  A
C407       H1245   1.083       .  S
C408        C409   1.398   1_565  A
C409        C826   1.402       .  A
C409        H414   1.083       .  S
C410        C825   1.402   1_554  A
C410       C1243   1.418   1_455  A
C410        H415   1.083       .  S
C411       C1242   1.418       .  A
C411        C828   1.398   1_544  A
C412       C1239   1.402       .  A
C412        C827   1.398   1_565  A
C412        H416   1.083       .  S
H413       C1239   1.083       .  S
O417        C432   1.277       .  A
O417       Al425   1.958       .  S
C418        O428   1.272       .  A
C418        O419   1.259       .  A
C418        C784   1.470       .  S
O419       Al421   1.870       .  S
O420        C422   1.261       .  A
O420       Al421   1.920       .  S
Al421       O429   1.939       .  S
Al421       O431   1.846       .  S
Al421       O430   1.775       .  S
C422        O435   1.256       .  A
C422        C804   1.471   1_565  S
O423        C433   1.282       .  A
O423       Al425   1.996       .  S
O424        C437   1.266       .  A
O424       Al434   1.958       .  S
Al425       O438   1.865       .  S
Al425       O435   1.895       .  S
Al425       O430   1.766       .  S
O426        C433   1.253       .  A
O426       Al434   1.845       .  S
O427        C436   1.264       .  A
O427       Al434   1.901       .  S
O428       Al434   1.940       .  S
O429        C436   1.270       .  A
O430       Al434   1.778       .  S
O431        C432   1.259       .  A
C432        C777   1.472       .  S
C433        C824   1.490       .  S
C436        C794   1.484       .  S
C437        O438   1.248       .  A
O439        C454   1.248       .  A
O439       Al447   1.861       .  S
C440        O450   1.260       .  A
C440        O441   1.273       .  A
C440        C734   1.470       .  S
O441       Al443   1.941       .  S
O442        C444   1.252       .  A
O442       Al443   1.844       .  S
Al443       O451   1.904       .  S
Al443       O453   1.967       .  S
Al443       O452   1.779       .  S
C444        O457   1.282       .  A
C444        C724   1.488       .  S
O445        C455   1.256       .  A
O445       Al447   1.897       .  S
O446        C459   1.259       .  A
O446       Al456   1.848       .  S
Al447       O460   1.961       .  S
Al447       O457   1.994       .  S
Al447       O452   1.764       .  S
O448        C455   1.262       .  A
O448       Al456   1.925       .  S
O449        C458   1.270       .  A
O449       Al456   1.938       .  S
O450       Al456   1.870       .  S
O451        C458   1.265       .  A
O452       Al456   1.773       .  S
O453        C454   1.267       .  A
C455        C764   1.473       .  S
C458        C797   1.484       .  S
C459        O460   1.277       .  A
C459        C744   1.473       .  S
O461        C476   1.248       .  A
O461       Al469   1.860       .  S
C462        O472   1.260       .  A
C462        O463   1.273       .  A
C462        C774   1.469       .  S
O463       Al465   1.942       .  S
O464        C466   1.252       .  A
O464       Al465   1.842       .  S
Al465       O473   1.904       .  S
Al465       O475   1.964       .  S
Al465       O474   1.778       .  S
C466        O479   1.282       .  A
C466        C684   1.488       .  S
O467        C477   1.256       .  A
O467       Al469   1.896       .  S
O468        C481   1.259       .  A
O468       Al478   1.847       .  S
Al469       O482   1.960       .  S
Al469       O479   1.995       .  S
Al469       O474   1.766       .  S
O470        C477   1.261       .  A
O470       Al478   1.922       .  S
O471        C480   1.270       .  A
O471       Al478   1.940       .  S
O472       Al478   1.869       .  S
O473        C480   1.265       .  A
O474       Al478   1.773       .  S
O475        C476   1.267       .  A
C476        C707   1.487       .  S
C477        C714   1.472   1_565  S
C480        C694   1.486       .  S
C481        O482   1.277       .  A
C481        C787   1.471       .  S
O483        C498   1.277       .  A
O483       Al491   1.959       .  S
C484        O494   1.272       .  A
C484        O485   1.260       .  A
C484        C747   1.471       .  S
O485       Al487   1.873       .  S
O486        C488   1.260       .  A
O486       Al487   1.920       .  S
Al487       O495   1.940       .  S
Al487       O497   1.847       .  S
Al487       O496   1.774       .  S
C488        O501   1.256       .  A
C488        C657   1.472       .  S
O489        C499   1.281       .  A
O489       Al491   1.992       .  S
O490        C503   1.266       .  A
O490       Al500   1.956       .  S
Al491       O504   1.866       .  S
Al491       O501   1.898       .  S
Al491       O496   1.767       .  S
O492        C499   1.253       .  A
O492       Al500   1.843       .  S
O493        C502   1.265       .  A
O493       Al500   1.905       .  S
O494       Al500   1.941       .  S
O495        C502   1.270       .  A
O496       Al500   1.779       .  S
O497        C498   1.259       .  A
C498        C737   1.472       .  S
C499        C674   1.488       .  S
C502        C697   1.486       .  S
C503        O504   1.249       .  A
C503        C664   1.486       .  S
O505        C520   1.277       .  A
O505       Al513   1.959       .  S
C506        O516   1.272       .  A
C506        O507   1.260       .  A
C506        C634   1.470       .  S
O507       Al509   1.872       .  S
O508        C510   1.261       .  A
O508       Al509   1.922       .  S
Al509       O517   1.943       .  S
Al509       O519   1.847       .  S
Al509       O518   1.773       .  S
C510        O523   1.257       .  A
C510        C667   1.472       .  S
O511        C521   1.282       .  A
O511       Al513   1.996       .  S
O512        C525   1.266       .  A
Al513       O523   1.899       .  S
Al513       O518   1.765       .  S
O514        C521   1.253       .  A
O514       Al522   1.843       .  S
O515        C524   1.265       .  A
O515       Al522   1.902       .  S
O516       Al522   1.941       .  S
O517        C524   1.271       .  A
O518       Al522   1.778       .  S
O519        C520   1.259       .  A
C520        C624   1.472       .  S
C524        C644   1.486       .  S
C525        O526   1.249   1_556  A
C525        C654   1.487       .  S
O527       Al535   1.857       .  S
C528        O538   1.260       .  A
C528        O529   1.273       .  A
C528        C604   1.470       .  S
O529       Al531   1.943       .  S
O530        C532   1.252       .  A
O530       Al531   1.846       .  S
Al531       O539   1.905       .  S
Al531       O540   1.779       .  S
C532        O545   1.281       .  A
C532        C827   1.490       .  S
O533        C543   1.256       .  A
O533       Al535   1.896       .  S
O534        C547   1.260       .  A
O534       Al544   1.850       .  S
Al535       O548   1.960       .  S
Al535       O545   1.996       .  S
Al535       O540   1.765       .  S
O536        C543   1.262       .  A
O536       Al544   1.924       .  S
O537        C546   1.269       .  A
O537       Al544   1.939       .  S
O538       Al544   1.868       .  S
O539        C546   1.265       .  A
O540       Al544   1.774       .  S
O541        C542   1.268       .  A
C542        C717   1.488       .  S
C543        C704   1.472   1_545  S
C546        C647   1.486       .  S
C547        O548   1.277       .  A
C547        C614   1.472       .  S
O549        C564   1.248       .  A
O549       Al557   1.859       .  S
C550        O560   1.261       .  A
C550        O551   1.274       .  A
C550        C627   1.470       .  S
O551       Al553   1.943       .  S
O552        C554   1.252       .  A
O552       Al553   1.842       .  S
Al553       O561   1.906       .  S
Al553       O563   1.965       .  S
Al553       O562   1.778       .  S
C554        O567   1.281       .  A
C554        C677   1.488       .  S
O555        C565   1.256       .  A
O555       Al557   1.899       .  S
O556        C569   1.260       .  A
O556       Al566   1.848       .  S
Al557       O570   1.961       .  S
Al557       O567   1.993       .  S
Al557       O562   1.765       .  S
O558        C565   1.261       .  A
O558       Al566   1.926       .  S
O559        C568   1.269       .  A
O559       Al566   1.941       .  S
O560       Al566   1.869       .  S
O561        C568   1.264       .  A
O562       Al566   1.775       .  S
O563        C564   1.268       .  A
C564        C767   1.488       .  S
C565        C757   1.474       .  S
C568        C594   1.487       .  S
C569        O570   1.278       .  A
C569        C637   1.472       .  S
O571        C586   1.278       .  A
O571       Al579   1.961       .  S
C572        O582   1.273       .  A
C572        O573   1.261       .  A
C572        C617   1.470       .  S
O573       Al575   1.871       .  S
O574        C576   1.260       .  A
O574       Al575   1.922       .  S
Al575       O583   1.938       .  S
Al575       O585   1.846       .  S
Al575       O584   1.774       .  S
C576        O589   1.256       .  A
C576        C817   1.472   1_545  S
O577        C587   1.281       .  A
O577       Al579   1.994       .  S
O578        C591   1.267       .  A
O578       Al588   1.960       .  S
Al579       O592   1.857       .  S
Al579       O589   1.898       .  S
Al579       O584   1.765       .  S
O580        C587   1.252       .  A
O580       Al588   1.841       .  S
O581        C590   1.264       .  A
O581       Al588   1.905       .  S
O582       Al588   1.942       .  S
O583        C590   1.269       .  A
O584       Al588   1.778       .  S
O585        C586   1.259       .  A
C586        C607   1.471       .  S
C587        C687   1.488       .  S
C590        C597   1.486       .  S
C591        O592   1.248       .  A
C591        C807   1.486       .  S
C593        C594   1.407       .  A
C593        C598   1.402       .  A
C593        H599   1.083       .  S
C594        C595   1.406       .  A
C595        C596   1.398       .  A
C595        H600   1.083       .  S
C596        C597   1.406       .  A
C596        H601   1.083       .  S
C597        C598   1.407       .  A
C598        H602   1.083       .  S
C603        C604   1.410       .  A
C603       C1440   1.398       .  A
C603        H609   1.083       .  S
C604       C1437   1.398       .  A
C605       C1436   1.398   1_455  A
C605        C606   1.390       .  A
C605        H610   1.083       .  S
C606        C607   1.408       .  A
C606        H611   1.083       .  S
C607        C608   1.400       .  A
C608       C1435   1.398       .  A
C608        H612   1.083       .  S
C613        C614   1.408       .  A
C613        C618   1.391       .  A
C613        H619   1.083       .  S
C614        C615   1.400       .  A
C615        C616   1.397       .  A
C615        H620   1.083       .  S
C616        C617   1.409       .  A
C616        H621   1.083       .  S
C617        C618   1.399       .  A
C618        H622   1.083       .  S
C623        C624   1.400       .  A
C623        C628   1.398       .  A
C623        H629   1.083       .  S
C624        C625   1.409       .  A
C625        C626   1.390       .  A
C625        H630   1.083       .  S
C626        C627   1.398       .  A
C626        H631   1.083       .  S
C627        C628   1.410       .  A
C628        H632   1.083       .  S
C633       C1466   1.398   1_455  A
C633        C638   1.390       .  A
C633        H639   1.083       .  S
C634       C1465   1.398       .  A
C634        C635   1.409       .  A
C635       C1468   1.398       .  A
C635        H640   1.083       .  S
C636       C1467   1.398       .  A
C636        C637   1.400       .  A
C636        H641   1.083       .  S
C637        C638   1.408       .  A
C638        H642   1.083       .  S
C643        C644   1.407       .  A
C643        C648   1.402       .  A
C644        C645   1.406       .  A
C645        C646   1.399       .  A
C645        H650   1.083       .  S
C646        C647   1.406       .  A
C646        H651   1.083       .  S
C647        C648   1.406       .  A
C653        C654   1.412       .  A
C653        C658   1.397       .  A
C653        H659   1.083       .  S
C654        C655   1.406       .  A
C655        C656   1.405       .  A
C655        H660   1.083       .  S
C656        C657   1.406       .  A
C656        H661   1.083       .  S
C657        C658   1.397       .  A
C658        H662   1.084       .  S
C663        C664   1.405       .  A
C663        C668   1.404       .  A
C663        H669   1.083       .  S
C664        C665   1.412       .  A
C665        C666   1.398       .  A
C665        H670   1.083       .  S
C666        C667   1.398       .  A
C666        H671   1.084       .  S
C667        C668   1.406       .  A
C668        H672   1.083       .  S
C673        C674   1.417       .  A
C673        C678   1.401       .  A
C673        H679   1.083       .  S
C674        C675   1.398       .  A
C675        C676   1.402       .  A
C675        H680   1.083       .  S
C676        C677   1.417       .  A
C676        H681   1.083       .  S
C677        C678   1.398       .  A
C678        H682   1.083       .  S
C683        C684   1.418       .  A
C683        C688   1.402       .  A
C683        H689   1.083       .  S
C684        C685   1.397   1_565  A
C685        C686   1.401       .  A
C685        H690   1.083       .  S
C686        C687   1.418       .  A
C686        H691   1.083       .  S
C687        C688   1.397   1_545  A
C688        H692   1.083       .  S
C693        C694   1.406       .  A
C693        C698   1.398       .  A
C693        H699   1.083       .  S
C694        C695   1.407       .  A
C695        C696   1.402       .  A
C695        H700   1.083       .  S
C696        C697   1.407       .  A
C696        H701   1.083       .  S
C697        C698   1.406       .  A
C698        H702   1.083       .  S
C703        C704   1.396       .  A
C703        C708   1.397       .  A
C703        H709   1.084   1_565  S
C704        C705   1.407       .  A
C705        C706   1.405       .  A
C705        H710   1.083       .  S
C706        C707   1.405       .  A
C706        H711   1.083       .  S
C707        C708   1.413       .  A
C708        H712   1.083       .  S
C713        C714   1.407       .  A
C713        C718   1.406       .  A
C713        H719   1.083       .  S
C714        C715   1.396       .  A
C715        C716   1.396       .  A
C715        H720   1.084   1_545  S
C716        C717   1.413       .  A
C716        H721   1.083       .  S
C717        C718   1.405       .  A
C718        H722   1.083       .  S
C723       C1556   1.418       .  A
C723        C728   1.402       .  A
C723        H729   1.083       .  S
C724       C1555   1.418   1_455  A
C724        C725   1.397       .  A
C726       C1143   1.417   1_455  A
C726        H731   1.083       .  S
C727       C1142   1.417       .  A
C727        C728   1.398       .  A
C728        H732   1.083       .  S
C733       C1566   1.398       .  A
C733        C738   1.390       .  A
C733        H739   1.083       .  S
C734       C1565   1.398   1_455  A
C734       C1567   1.410   1_455  A
C735       C1566   1.410       .  A
C735        C736   1.398       .  A
C735       H1572   1.083       .  S
C736        C737   1.400       .  A
C736        H741   1.083       .  S
C737        C738   1.408       .  A
C738        H742   1.083       .  S
H740       C1567   1.083   1_455  S
C743        C744   1.400       .  A
C743        C748   1.398       .  A
C743        H749   1.083       .  S
C744        C745   1.409       .  A
C745        C746   1.390       .  A
C745        H750   1.083       .  S
C746        C747   1.399       .  A
C746        H751   1.083       .  S
C747        C748   1.409       .  A
C748        H752   1.083       .  S
C753        C754   1.405       .  A
C753        C758   1.406       .  A
C753        H759   1.083       .  S
C754        C755   1.413       .  A
C755        C756   1.397       .  A
C755        H760   1.083       .  S
C756        C757   1.396       .  A
C756        H761   1.084       .  S
C757        C758   1.407       .  A
C758        H762   1.083       .  S
C763        C764   1.407       .  A
C763        C768   1.406       .  A
C763        H769   1.083       .  S
C764        C765   1.396       .  A
C765        C766   1.397       .  A
C765        H770   1.084       .  S
C766        C767   1.413       .  A
C766        H771   1.083       .  S
C767        C768   1.405       .  A
C768        H772   1.083       .  S
C773        C774   1.398       .  A
C773        C778   1.391       .  A
C773        H779   1.083       .  S
C774        C775   1.409       .  A
C775        C776   1.397       .  A
C775        H780   1.083       .  S
C776        C777   1.400       .  A
C776        H781   1.083       .  S
C777        C778   1.409       .  A
C778        H782   1.083       .  S
C783        C784   1.409   1_655  A
C783       C1620   1.397       .  A
C783        H789   1.083   1_655  S
C784       C1617   1.399   1_455  A
C785       C1616   1.399       .  A
C785        C786   1.391       .  A
C785        H790   1.083       .  S
C786        C787   1.408       .  A
C786        H791   1.083       .  S
C787        C788   1.400       .  A
C788       C1615   1.397       .  A
C788        H792   1.083       .  S
C793        C794   1.407       .  A
C793        C798   1.401       .  A
C793        H799   1.083       .  S
C794        C795   1.405       .  A
C795        C796   1.397       .  A
C795        H800   1.083       .  S
C796        C797   1.406       .  A
C796        H801   1.083       .  S
C797        C798   1.407       .  A
C798        H802   1.083       .  S
C803        C804   1.406       .  A
C803        C808   1.405       .  A
C803        H809   1.083       .  S
C804        C805   1.396       .  A
C805        C806   1.396       .  A
C805        H810   1.084   1_545  S
C806        C807   1.413       .  A
C806        H811   1.083       .  S
C807        C808   1.405       .  A
C808        H812   1.083       .  S
C813        C814   1.412       .  A
C813        C818   1.398       .  A
C814        C815   1.405       .  A
C815        C816   1.404       .  A
C815        H820   1.083       .  S
C816        C817   1.406       .  A
C816        H821   1.083       .  S
C817        C818   1.397       .  A
C818        H822   1.084   1_565  S
C823        C824   1.418   1_655  A
C823       C1660   1.402       .  A
C823       H1661   1.083       .  S
C824        C825   1.398   1_565  A
C825        H830   1.083       .  S
C826       C1659   1.418   1_455  A
C826        H831   1.083       .  S
C827       C1658   1.418       .  A
C828       C1655   1.402       .  A
C828        H832   1.083       .  S
H829       C1655   1.083       .  S
O833        C848   1.277       .  A
O833       Al841   1.958       .  S
C834        O844   1.272       .  A
C834        O835   1.259       .  A
C834       C1200   1.470       .  S
O835       Al837   1.870       .  S
O836        C838   1.261       .  A
O836       Al837   1.919       .  S
Al837       O845   1.939       .  S
Al837       O847   1.846       .  S
Al837       O846   1.775       .  S
C838        O851   1.256       .  A
C838       C1220   1.471   1_565  S
O839        C849   1.282       .  A
O839       Al841   1.996       .  S
O840        C853   1.266       .  A
O840       Al850   1.958       .  S
Al841       O854   1.865       .  S
Al841       O851   1.895       .  S
Al841       O846   1.766       .  S
O842        C849   1.253       .  A
O842       Al850   1.845       .  S
O843        C852   1.264       .  A
O843       Al850   1.901       .  S
O844       Al850   1.940       .  S
O845        C852   1.270       .  A
O846       Al850   1.778       .  S
O847        C848   1.259       .  A
C848       C1193   1.472       .  S
C849       C1240   1.490       .  S
C852       C1210   1.484       .  S
C853        O854   1.248       .  A
C853       C1646   1.486       .  S
O855        C870   1.248       .  A
O855       Al863   1.861       .  S
C856        O866   1.260       .  A
C856        O857   1.273       .  A
C856       C1150   1.470       .  S
O857       Al859   1.941       .  S
O858        C860   1.252       .  A
O858       Al859   1.844       .  S
Al859       O867   1.904       .  S
Al859       O869   1.967       .  S
Al859       O868   1.779       .  S
C860        O873   1.282       .  A
C860       C1140   1.488       .  S
O861        C871   1.256       .  A
O861       Al863   1.897       .  S
O862        C875   1.259       .  A
O862       Al872   1.848       .  S
Al863       O876   1.961       .  S
Al863       O873   1.994       .  S
Al863       O868   1.764       .  S
O864        C871   1.262       .  A
O864       Al872   1.925       .  S
O865        C874   1.270       .  A
O865       Al872   1.938       .  S
O866       Al872   1.870       .  S
O867        C874   1.265       .  A
O868       Al872   1.773       .  S
O869        C870   1.267       .  A
C870       C1586   1.488       .  S
C871       C1180   1.473       .  S
C874       C1213   1.484       .  S
C875        O876   1.277       .  A
C875       C1160   1.473       .  S
O877        C892   1.248       .  A
O877       Al885   1.860       .  S
C878        O888   1.260       .  A
C878        O879   1.273       .  A
C878       C1190   1.469       .  S
O879       Al881   1.942       .  S
O880        C882   1.252       .  A
O880       Al881   1.842       .  S
Al881       O889   1.904       .  S
Al881       O891   1.964       .  S
Al881       O890   1.778       .  S
C882        O895   1.282       .  A
C882       C1100   1.488       .  S
O883        C893   1.256       .  A
O883       Al885   1.896       .  S
O884        C897   1.259       .  A
O884       Al894   1.847       .  S
Al885       O898   1.960       .  S
Al885       O895   1.995       .  S
Al885       O890   1.766       .  S
O886        C893   1.261       .  A
O886       Al894   1.922       .  S
O887        C896   1.270       .  A
O887       Al894   1.940       .  S
O888       Al894   1.869       .  S
O889        C896   1.265       .  A
O890       Al894   1.773       .  S
O891        C892   1.267       .  A
C892       C1123   1.487       .  S
C893       C1130   1.472   1_565  S
C896       C1110   1.486       .  S
C897        O898   1.277       .  A
C897       C1203   1.471       .  S
O899        C914   1.277       .  A
O899       Al907   1.959       .  S
C900        O910   1.272       .  A
C900        O901   1.260       .  A
C900       C1163   1.471       .  S
O901       Al903   1.873       .  S
O902        C904   1.260       .  A
O902       Al903   1.920       .  S
Al903       O911   1.940       .  S
Al903       O913   1.847       .  S
Al903       O912   1.774       .  S
C904        O917   1.256       .  A
C904       C1073   1.472       .  S
O905        C915   1.281       .  A
O905       Al907   1.992       .  S
O906        C919   1.266       .  A
O906       Al916   1.956       .  S
Al907       O920   1.866       .  S
Al907       O917   1.898       .  S
Al907       O912   1.767       .  S
O908        C915   1.253       .  A
O908       Al916   1.843       .  S
O909        C918   1.265       .  A
O909       Al916   1.905       .  S
O910       Al916   1.941       .  S
O911        C918   1.270       .  A
O912       Al916   1.779       .  S
O913        C914   1.259       .  A
C914       C1153   1.472       .  S
C915       C1090   1.488       .  S
C918       C1113   1.486       .  S
C919        O920   1.249       .  A
C919       C1080   1.486       .  S
O921        C936   1.277       .  A
O921       Al929   1.959       .  S
C922        O932   1.272       .  A
C922        O923   1.260       .  A
C922       C1050   1.470       .  S
O923       Al925   1.872       .  S
O924        C926   1.261       .  A
O924       Al925   1.922       .  S
Al925       O933   1.943       .  S
Al925       O935   1.847       .  S
Al925       O934   1.773       .  S
C926        O939   1.257       .  A
C926       C1083   1.472       .  S
O927        C937   1.282       .  A
O927       Al929   1.996       .  S
O928        C941   1.266       .  A
O928      Al1354   1.962       .  S
Al929      O1358   1.864       .  S
Al929       O939   1.899       .  S
Al929       O934   1.765       .  S
O930        C937   1.253       .  A
O930       Al938   1.843       .  S
O931        C940   1.265       .  A
O931       Al938   1.902       .  S
O932       Al938   1.941       .  S
O933        C940   1.271       .  A
O934       Al938   1.778       .  S
O935        C936   1.259       .  A
C936       C1040   1.472       .  S
C937       C1559   1.489   1_554  S
Al938      O1344   1.962   1_554  S
C940       C1060   1.486       .  S
C941        O942   1.249       .  A
C941       C1070   1.487       .  S
O942      Al1345   1.864       .  S
O943       C1374   1.248   1_554  A
O943       Al951   1.857       .  S
C944        O954   1.260       .  A
C944        O945   1.273       .  A
C944       C1020   1.470       .  S
O945       Al947   1.943       .  S
O946        C948   1.252       .  A
O946       Al947   1.846       .  S
Al947       O955   1.905       .  S
Al947      O1373   1.967   1_554  S
Al947       O956   1.779       .  S
C948        O961   1.281       .  A
C948       C1243   1.490       .  S
O949        C959   1.256       .  A
O949       Al951   1.896       .  S
O950        C963   1.260       .  A
O950       Al960   1.850       .  S
Al951       O964   1.960       .  S
Al951       O961   1.996       .  S
Al951       O956   1.765       .  S
O952        C959   1.262       .  A
O952       Al960   1.924       .  S
O953        C962   1.269       .  A
O953       Al960   1.939       .  S
O954       Al960   1.868       .  S
O955        C962   1.265       .  A
O956       Al960   1.774       .  S
O957        C958   1.268       .  A
O957      Al1363   1.967       .  S
C958       O1359   1.248       .  A
C958       C1133   1.488       .  S
C959       C1120   1.472   1_545  S
C962       C1063   1.486       .  S
C963        O964   1.277       .  A
C963       C1030   1.472       .  S
O965        C980   1.248       .  A
O965       Al973   1.859       .  S
C966        O976   1.261       .  A
C966        O967   1.274       .  A
C966       C1043   1.470       .  S
O967       Al969   1.943       .  S
O968        C970   1.252       .  A
O968       Al969   1.842       .  S
Al969       O977   1.906       .  S
Al969       O979   1.965       .  S
Al969       O978   1.778       .  S
C970        O983   1.281       .  A
C970       C1093   1.488       .  S
O971        C981   1.256       .  A
O971       Al973   1.899       .  S
O972        C985   1.260       .  A
O972       Al982   1.848       .  S
Al973       O986   1.961       .  S
Al973       O983   1.993       .  S
Al973       O978   1.765       .  S
O974        C981   1.261       .  A
O974       Al982   1.926       .  S
O975        C984   1.269       .  A
O975       Al982   1.941       .  S
O976       Al982   1.869       .  S
O977        C984   1.264       .  A
O978       Al982   1.775       .  S
O979        C980   1.268       .  A
C980       C1183   1.488       .  S
C981       C1173   1.474       .  S
C984       C1010   1.487       .  S
C985        O986   1.278       .  A
C985       C1053   1.472       .  S
O987       C1002   1.278       .  A
O987       Al995   1.961       .  S
C988        O998   1.273       .  A
C988        O989   1.261       .  A
C988       C1033   1.470       .  S
O989       Al991   1.871       .  S
O990        C992   1.260       .  A
O990       Al991   1.922       .  S
Al991       O999   1.938       .  S
Al991      O1001   1.846       .  S
Al991      O1000   1.774       .  S
C992       O1005   1.256       .  A
C992       C1233   1.472   1_545  S
O993       C1003   1.281       .  A
O993       Al995   1.994       .  S
O994       C1007   1.267       .  A
O994      Al1004   1.960       .  S
Al995      O1008   1.857       .  S
Al995      O1005   1.898       .  S
Al995      O1000   1.765       .  S
O996       C1003   1.252       .  A
O996      Al1004   1.841       .  S
O997       C1006   1.264       .  A
O997      Al1004   1.905       .  S
O998      Al1004   1.942       .  S
O999       C1006   1.269       .  A
O1000     Al1004   1.778       .  S
O1001      C1002   1.259       .  A
C1002      C1023   1.471       .  S
C1003      C1103   1.488       .  S
C1006      C1013   1.486       .  S
C1007      O1008   1.248       .  A
C1007      C1223   1.486       .  S
C1009      C1010   1.407       .  A
C1009      C1014   1.402       .  A
C1009      H1015   1.083       .  S
C1010      C1011   1.406       .  A
C1011      C1012   1.398       .  A
C1011      H1016   1.083       .  S
C1012      C1013   1.406       .  A
C1012      H1017   1.083       .  S
C1013      C1014   1.407       .  A
C1014      H1018   1.083       .  S
C1019      C1020   1.410   1_455  A
C1019      H1025   1.083   1_455  S
C1021      C1022   1.390       .  A
C1021      H1026   1.083       .  S
C1022      C1023   1.408       .  A
C1022      H1027   1.083       .  S
C1023      C1024   1.400       .  A
C1024      H1028   1.083       .  S
C1029      C1030   1.408       .  A
C1029      C1034   1.391       .  A
C1029      H1035   1.083       .  S
C1030      C1031   1.400       .  A
C1031      C1032   1.397       .  A
C1031      H1036   1.083       .  S
C1032      C1033   1.409       .  A
C1032      H1037   1.083       .  S
C1033      C1034   1.399       .  A
C1034      H1038   1.083       .  S
C1039      C1040   1.400       .  A
C1039      C1044   1.398       .  A
C1039      H1045   1.083       .  S
C1040      C1041   1.409       .  A
C1041      C1042   1.390       .  A
C1041      H1046   1.083       .  S
C1042      C1043   1.398       .  A
C1042      H1047   1.083       .  S
C1043      C1044   1.410       .  A
C1044      H1048   1.083       .  S
C1049      C1054   1.390       .  A
C1049      H1055   1.083       .  S
C1050      C1051   1.409   1_655  A
C1051      H1056   1.083   1_455  S
C1052      C1053   1.400       .  A
C1052      H1057   1.083       .  S
C1053      C1054   1.408       .  A
C1054      H1058   1.083       .  S
C1059      C1060   1.407       .  A
C1059      C1064   1.402       .  A
C1059      H1481   1.083       .  S
C1060      C1061   1.406       .  A
C1061      C1062   1.399       .  A
C1061      H1066   1.083       .  S
C1062      C1063   1.406       .  A
C1062      H1067   1.083       .  S
C1063      C1064   1.406       .  A
C1064      H1484   1.083       .  S
H1065      C1475   1.083       .  S
H1068      C1480   1.083       .  S
C1069      C1070   1.412       .  A
C1069      C1074   1.397       .  A
C1069      H1075   1.083       .  S
C1070      C1071   1.406       .  A
C1071      C1072   1.405       .  A
C1071      H1076   1.083       .  S
C1072      C1073   1.406       .  A
C1072      H1077   1.083       .  S
C1073      C1074   1.397       .  A
C1074      H1078   1.084       .  S
C1079      C1080   1.405       .  A
C1079      C1084   1.404       .  A
C1079      H1085   1.083       .  S
C1080      C1081   1.412       .  A
C1081      C1082   1.398       .  A
C1081      H1086   1.083       .  S
C1082      C1083   1.398       .  A
C1082      H1087   1.084       .  S
C1083      C1084   1.406       .  A
C1084      H1088   1.083       .  S
C1089      C1090   1.417       .  A
C1089      C1094   1.401       .  A
C1089      H1095   1.083       .  S
C1090      C1091   1.398       .  A
C1091      C1092   1.402       .  A
C1091      H1096   1.083       .  S
C1092      C1093   1.417       .  A
C1092      H1097   1.083       .  S
C1093      C1094   1.398       .  A
C1094      H1098   1.083       .  S
C1099      C1100   1.418       .  A
C1099      C1104   1.402       .  A
C1099      H1105   1.083       .  S
C1100      C1101   1.397   1_565  A
C1101      C1102   1.401       .  A
C1101      H1106   1.083       .  S
C1102      C1103   1.418       .  A
C1102      H1107   1.083       .  S
C1103      C1104   1.397   1_545  A
C1104      H1108   1.083       .  S
C1109      C1110   1.406       .  A
C1109      C1114   1.398       .  A
C1109      H1115   1.083       .  S
C1110      C1111   1.407       .  A
C1111      C1112   1.402       .  A
C1111      H1116   1.083       .  S
C1112      C1113   1.407       .  A
C1112      H1117   1.083       .  S
C1113      C1114   1.406       .  A
C1114      H1118   1.083       .  S
C1119      C1120   1.396       .  A
C1119      C1124   1.397       .  A
C1119      H1125   1.084   1_565  S
C1120      C1121   1.407       .  A
C1121      C1122   1.405       .  A
C1121      H1126   1.083       .  S
C1122      C1123   1.405       .  A
C1122      H1127   1.083       .  S
C1123      C1124   1.413       .  A
C1124      H1128   1.083       .  S
C1129      C1130   1.407       .  A
C1129      C1134   1.406       .  A
C1129      H1135   1.083       .  S
C1130      C1131   1.396       .  A
C1131      C1132   1.396       .  A
C1131      H1136   1.084   1_545  S
C1132      C1133   1.413       .  A
C1132      H1137   1.083       .  S
C1133      C1134   1.405       .  A
C1134      H1138   1.083       .  S
C1139      C1144   1.402       .  A
C1139      H1145   1.083       .  S
C1140      C1141   1.397       .  A
C1141      C1558   1.401       .  A
C1141      H1562   1.083       .  S
C1142      C1557   1.401       .  A
C1142      H1147   1.083   1_556  S
C1143      C1353   1.489       .  S
C1143      C1144   1.398       .  A
C1144      H1148   1.083       .  S
H1146      C1557   1.083       .  S
C1149      C1154   1.390       .  A
C1149      H1155   1.083       .  S
C1151      C1152   1.398       .  A
C1152      C1153   1.400       .  A
C1152      H1157   1.083       .  S
C1153      C1154   1.408       .  A
C1154      H1158   1.083       .  S
C1159      C1160   1.400       .  A
C1159      C1164   1.398       .  A
C1159      H1165   1.083       .  S
C1160      C1161   1.409       .  A
C1161      C1162   1.390       .  A
C1161      H1166   1.083       .  S
C1162      C1163   1.399       .  A
C1162      H1167   1.083       .  S
C1163      C1164   1.409       .  A
C1164      H1168   1.083       .  S
C1169      C1170   1.405       .  A
C1169      C1174   1.406       .  A
C1169      H1175   1.083       .  S
C1170      C1286   1.488   1_554  S
C1170      C1171   1.413       .  A
C1171      C1172   1.397       .  A
C1171      H1176   1.083   1_554  S
C1172      C1173   1.396       .  A
C1172      H1177   1.084       .  S
C1173      C1174   1.407       .  A
C1174      H1178   1.083       .  S
C1179      C1180   1.407       .  A
C1179      C1184   1.406       .  A
C1179      H1185   1.083       .  S
C1180      C1181   1.396       .  A
C1181      C1182   1.397       .  A
C1181      H1186   1.084       .  S
C1182      C1183   1.413       .  A
C1182      H1187   1.083       .  S
C1183      C1184   1.405       .  A
C1184      H1188   1.083       .  S
C1189      C1190   1.398       .  A
C1189      C1194   1.391       .  A
C1189      H1195   1.083       .  S
C1190      C1191   1.409       .  A
C1191      C1192   1.397       .  A
C1191      H1196   1.083       .  S
C1192      C1193   1.400       .  A
C1192      H1197   1.083       .  S
C1193      C1194   1.409       .  A
C1194      H1198   1.083       .  S
C1199      C1200   1.409       .  A
C1199      H1205   1.083       .  S
C1201      C1202   1.391       .  A
C1201      H1206   1.083       .  S
C1202      C1203   1.408       .  A
C1202      H1207   1.083       .  S
C1203      C1204   1.400       .  A
C1204      H1208   1.083       .  S
C1209      C1210   1.407       .  A
C1209      C1214   1.401       .  A
C1209      H1215   1.083       .  S
C1210      C1211   1.405       .  A
C1211      C1212   1.397       .  A
C1211      H1216   1.083       .  S
C1212      C1213   1.406       .  A
C1212      H1217   1.083       .  S
C1213      C1214   1.407       .  A
C1214      H1218   1.083       .  S
C1219      C1220   1.406       .  A
C1219      C1224   1.405       .  A
C1219      H1225   1.083       .  S
C1220      C1221   1.396       .  A
C1221      C1222   1.396       .  A
C1221      H1226   1.084   1_545  S
C1222      C1223   1.413       .  A
C1222      H1227   1.083       .  S
C1223      C1224   1.405       .  A
C1224      H1228   1.083       .  S
C1229      C1230   1.412       .  A
C1229      C1234   1.398       .  A
C1229      H1651   1.083   1_554  S
C1230      C1269   1.486   1_554  S
C1230      C1231   1.405       .  A
C1231      C1232   1.404       .  A
C1231      H1236   1.083       .  S
C1232      C1233   1.406       .  A
C1232      H1237   1.083       .  S
C1233      C1234   1.397       .  A
C1234      H1238   1.084   1_565  S
H1235      C1645   1.083       .  S
C1239      C1240   1.418       .  A
C1240      C1241   1.398   1_565  A
C1241      C1658   1.402       .  A
C1241      H1246   1.083       .  S
C1242      C1657   1.402   1_554  A
C1242      H1247   1.083       .  S
C1243      C1660   1.398   1_544  A
C1244      C1659   1.398   1_565  A
C1244      H1248   1.083       .  S
O1249      C1264   1.277       .  A
O1249     Al1257   1.958       .  S
C1250      O1260   1.272       .  A
C1250      O1251   1.259       .  A
C1250      C1616   1.470       .  S
O1251     Al1253   1.870       .  S
O1252      C1254   1.261       .  A
O1252     Al1253   1.920       .  S
Al1253     O1261   1.939       .  S
Al1253     O1263   1.846       .  S
Al1253     O1262   1.775       .  S
C1254      O1267   1.256       .  A
C1254      C1636   1.471   1_565  S
O1255      C1265   1.282       .  A
O1255     Al1257   1.996       .  S
O1256      C1269   1.266       .  A
O1256     Al1266   1.958       .  S
Al1257     O1270   1.865       .  S
Al1257     O1267   1.895       .  S
Al1257     O1262   1.766       .  S
O1258      C1265   1.253       .  A
O1258     Al1266   1.845       .  S
O1259      C1268   1.264       .  A
O1259     Al1266   1.901       .  S
O1260     Al1266   1.940       .  S
O1261      C1268   1.270       .  A
O1262     Al1266   1.778       .  S
O1263      C1264   1.259       .  A
C1264      C1609   1.472       .  S
C1265      C1656   1.490       .  S
C1268      C1626   1.484       .  S
C1269      O1270   1.248       .  A
O1271      C1286   1.248       .  A
O1271     Al1279   1.861       .  S
C1272      O1282   1.260       .  A
C1272      O1273   1.273       .  A
C1272      C1566   1.470       .  S
O1273     Al1275   1.941       .  S
O1274      C1276   1.252       .  A
O1274     Al1275   1.844       .  S
Al1275     O1283   1.904       .  S
Al1275     O1285   1.967       .  S
Al1275     O1284   1.779       .  S
C1276      O1289   1.282       .  A
C1276      C1556   1.488       .  S
O1277      C1287   1.256       .  A
O1277     Al1279   1.897       .  S
O1278      C1291   1.259       .  A
O1278     Al1288   1.848       .  S
Al1279     O1292   1.961       .  S
Al1279     O1289   1.994       .  S
Al1279     O1284   1.764       .  S
O1280      C1287   1.262       .  A
O1280     Al1288   1.925       .  S
O1281      C1290   1.270       .  A
O1281     Al1288   1.938       .  S
O1282     Al1288   1.870       .  S
O1283      C1290   1.265       .  A
O1284     Al1288   1.773       .  S
O1285      C1286   1.267       .  A
C1287      C1596   1.473       .  S
C1290      C1629   1.484       .  S
C1291      O1292   1.277       .  A
C1291      C1576   1.473       .  S
O1293      C1308   1.248       .  A
O1293     Al1301   1.860       .  S
C1294      O1304   1.260       .  A
C1294      O1295   1.273       .  A
C1294      C1606   1.469       .  S
O1295     Al1297   1.942       .  S
O1296      C1298   1.252       .  A
O1296     Al1297   1.842       .  S
Al1297     O1305   1.904       .  S
Al1297     O1307   1.964       .  S
Al1297     O1306   1.778       .  S
C1298      O1311   1.282       .  A
C1298      C1516   1.488       .  S
O1299      C1309   1.256       .  A
O1299     Al1301   1.896       .  S
O1300      C1313   1.259       .  A
O1300     Al1310   1.847       .  S
Al1301     O1314   1.960       .  S
Al1301     O1311   1.995       .  S
Al1301     O1306   1.766       .  S
O1302      C1309   1.261       .  A
O1302     Al1310   1.922       .  S
O1303      C1312   1.270       .  A
O1303     Al1310   1.940       .  S
O1304     Al1310   1.869       .  S
O1305      C1312   1.265       .  A
O1306     Al1310   1.773       .  S
O1307      C1308   1.267       .  A
C1308      C1539   1.487       .  S
C1309      C1546   1.472   1_565  S
C1312      C1526   1.486       .  S
C1313      O1314   1.277       .  A
C1313      C1619   1.471       .  S
O1315      C1330   1.277       .  A
O1315     Al1323   1.959       .  S
C1316      O1326   1.272       .  A
C1316      O1317   1.260       .  A
C1316      C1579   1.471       .  S
O1317     Al1319   1.873       .  S
O1318      C1320   1.260       .  A
O1318     Al1319   1.920       .  S
Al1319     O1327   1.940       .  S
Al1319     O1329   1.847       .  S
Al1319     O1328   1.774       .  S
C1320      O1333   1.256       .  A
C1320      C1489   1.472       .  S
O1321      C1331   1.281       .  A
O1321     Al1323   1.992       .  S
O1322      C1335   1.266       .  A
O1322     Al1332   1.956       .  S
Al1323     O1336   1.866       .  S
Al1323     O1333   1.898       .  S
Al1323     O1328   1.767       .  S
O1324      C1331   1.253       .  A
O1324     Al1332   1.843       .  S
O1325      C1334   1.265       .  A
O1325     Al1332   1.905       .  S
O1326     Al1332   1.941       .  S
O1327      C1334   1.270       .  A
O1328     Al1332   1.779       .  S
O1329      C1330   1.259       .  A
C1330      C1569   1.472       .  S
C1331      C1506   1.488       .  S
C1334      C1529   1.486       .  S
C1335      O1336   1.249       .  A
C1335      C1496   1.486       .  S
O1337      C1352   1.277       .  A
O1337     Al1345   1.959       .  S
C1338      O1348   1.272       .  A
C1338      O1339   1.260       .  A
C1338      C1466   1.470       .  S
O1339     Al1341   1.872       .  S
O1340      C1342   1.261       .  A
O1340     Al1341   1.922       .  S
Al1341     O1349   1.943       .  S
Al1341     O1351   1.847       .  S
Al1341     O1350   1.773       .  S
C1342      O1355   1.257       .  A
C1342      C1499   1.472       .  S
O1343      C1353   1.282       .  A
O1343     Al1345   1.996       .  S
O1344      C1357   1.266       .  A
Al1345     O1355   1.899       .  S
Al1345     O1350   1.765       .  S
O1346      C1353   1.253       .  A
O1346     Al1354   1.843       .  S
O1347      C1356   1.265       .  A
O1347     Al1354   1.902       .  S
O1348     Al1354   1.941       .  S
O1349      C1356   1.271       .  A
O1350     Al1354   1.778       .  S
O1351      C1352   1.259       .  A
C1352      C1456   1.472       .  S
C1356      C1476   1.486       .  S
C1357      O1358   1.249   1_556  A
C1357      C1486   1.487       .  S
O1359     Al1367   1.857       .  S
C1360      O1370   1.260       .  A
C1360      O1361   1.273       .  A
C1360      C1436   1.470       .  S
O1361     Al1363   1.943       .  S
O1362      C1364   1.252       .  A
O1362     Al1363   1.846       .  S
Al1363     O1371   1.905       .  S
Al1363     O1372   1.779       .  S
C1364      O1377   1.281       .  A
C1364      C1659   1.490       .  S
O1365      C1375   1.256       .  A
O1365     Al1367   1.896       .  S
O1366      C1379   1.260       .  A
O1366     Al1376   1.850       .  S
Al1367     O1380   1.960       .  S
Al1367     O1377   1.996       .  S
Al1367     O1372   1.765       .  S
O1368      C1375   1.262       .  A
O1368     Al1376   1.924       .  S
O1369      C1378   1.269       .  A
O1369     Al1376   1.939       .  S
O1370     Al1376   1.868       .  S
O1371      C1378   1.265       .  A
O1372     Al1376   1.774       .  S
O1373      C1374   1.268       .  A
C1374      C1549   1.488       .  S
C1375      C1536   1.472   1_545  S
C1378      C1479   1.486       .  S
C1379      O1380   1.277       .  A
C1379      C1446   1.472       .  S
O1381      C1396   1.248       .  A
O1381     Al1389   1.859       .  S
C1382      O1392   1.261       .  A
C1382      O1383   1.274       .  A
C1382      C1459   1.470       .  S
O1383     Al1385   1.943       .  S
O1384      C1386   1.252       .  A
O1384     Al1385   1.842       .  S
Al1385     O1393   1.906       .  S
Al1385     O1395   1.965       .  S
Al1385     O1394   1.778       .  S
C1386      O1399   1.281       .  A
C1386      C1509   1.488       .  S
O1387      C1397   1.256       .  A
O1387     Al1389   1.899       .  S
O1388      C1401   1.260       .  A
O1388     Al1398   1.848       .  S
Al1389     O1402   1.961       .  S
Al1389     O1399   1.993       .  S
Al1389     O1394   1.765       .  S
O1390      C1397   1.261       .  A
O1390     Al1398   1.926       .  S
O1391      C1400   1.269       .  A
O1391     Al1398   1.941       .  S
O1392     Al1398   1.869       .  S
O1393      C1400   1.264       .  A
O1394     Al1398   1.775       .  S
O1395      C1396   1.268       .  A
C1396      C1599   1.488       .  S
C1397      C1589   1.474       .  S
C1400      C1426   1.487       .  S
C1401      O1402   1.278       .  A
C1401      C1469   1.472       .  S
O1403      C1418   1.278       .  A
O1403     Al1411   1.961       .  S
C1404      O1414   1.273       .  A
C1404      O1405   1.261       .  A
C1404      C1449   1.470       .  S
O1405     Al1407   1.871       .  S
O1406      C1408   1.260       .  A
O1406     Al1407   1.922       .  S
Al1407     O1415   1.938       .  S
Al1407     O1417   1.846       .  S
Al1407     O1416   1.774       .  S
C1408      O1421   1.256       .  A
C1408      C1649   1.472   1_545  S
O1409      C1419   1.281       .  A
O1409     Al1411   1.994       .  S
O1410      C1423   1.267       .  A
O1410     Al1420   1.960       .  S
Al1411     O1424   1.857       .  S
Al1411     O1421   1.898       .  S
Al1411     O1416   1.765       .  S
O1412      C1419   1.252       .  A
O1412     Al1420   1.841       .  S
O1413      C1422   1.264       .  A
O1413     Al1420   1.905       .  S
O1414     Al1420   1.942       .  S
O1415      C1422   1.269       .  A
O1416     Al1420   1.778       .  S
O1417      C1418   1.259       .  A
C1418      C1439   1.471       .  S
C1419      C1519   1.488       .  S
C1422      C1429   1.486       .  S
C1423      O1424   1.248       .  A
C1423      C1639   1.486       .  S
C1425      C1426   1.407       .  A
C1425      C1430   1.402       .  A
C1425      H1431   1.083       .  S
C1426      C1427   1.406       .  A
C1427      C1428   1.398       .  A
C1427      H1432   1.083       .  S
C1428      C1429   1.406       .  A
C1428      H1433   1.083       .  S
C1429      C1430   1.407       .  A
C1430      H1434   1.083       .  S
C1435      C1436   1.410   1_455  A
C1435      H1441   1.083   1_455  S
C1437      C1438   1.390       .  A
C1437      H1442   1.083       .  S
C1438      C1439   1.408       .  A
C1438      H1443   1.083       .  S
C1439      C1440   1.400       .  A
C1440      H1444   1.083       .  S
C1445      C1446   1.408       .  A
C1445      C1450   1.391       .  A
C1445      H1451   1.083       .  S
C1446      C1447   1.400       .  A
C1447      C1448   1.397       .  A
C1447      H1452   1.083       .  S
C1448      C1449   1.409       .  A
C1448      H1453   1.083       .  S
C1449      C1450   1.399       .  A
C1450      H1454   1.083       .  S
C1455      C1456   1.400       .  A
C1455      C1460   1.398       .  A
C1455      H1461   1.083       .  S
C1456      C1457   1.409       .  A
C1457      C1458   1.390       .  A
C1457      H1462   1.083       .  S
C1458      C1459   1.398       .  A
C1458      H1463   1.083       .  S
C1459      C1460   1.410       .  A
C1460      H1464   1.083       .  S
C1465      C1470   1.390       .  A
C1465      H1471   1.083       .  S
C1466      C1467   1.409   1_655  A
C1467      H1472   1.083   1_455  S
C1468      C1469   1.400       .  A
C1468      H1473   1.083       .  S
C1469      C1470   1.408       .  A
C1470      H1474   1.083       .  S
C1475      C1476   1.407       .  A
C1475      C1480   1.402       .  A
C1476      C1477   1.406       .  A
C1477      C1478   1.399       .  A
C1477      H1482   1.083       .  S
C1478      C1479   1.406       .  A
C1478      H1483   1.083       .  S
C1479      C1480   1.406       .  A
C1485      C1486   1.412       .  A
C1485      C1490   1.397       .  A
C1485      H1491   1.083       .  S
C1486      C1487   1.406       .  A
C1487      C1488   1.405       .  A
C1487      H1492   1.083       .  S
C1488      C1489   1.406       .  A
C1488      H1493   1.083       .  S
C1489      C1490   1.397       .  A
C1490      H1494   1.084       .  S
C1495      C1496   1.405       .  A
C1495      C1500   1.404       .  A
C1495      H1501   1.083       .  S
C1496      C1497   1.412       .  A
C1497      C1498   1.398       .  A
C1497      H1502   1.083       .  S
C1498      C1499   1.398       .  A
C1498      H1503   1.084       .  S
C1499      C1500   1.406       .  A
C1500      H1504   1.083       .  S
C1505      C1506   1.417       .  A
C1505      C1510   1.401       .  A
C1505      H1511   1.083       .  S
C1506      C1507   1.398       .  A
C1507      C1508   1.402       .  A
C1507      H1512   1.083       .  S
C1508      C1509   1.417       .  A
C1508      H1513   1.083       .  S
C1509      C1510   1.398       .  A
C1510      H1514   1.083       .  S
C1515      C1516   1.418       .  A
C1515      C1520   1.402       .  A
C1515      H1521   1.083       .  S
C1516      C1517   1.397   1_565  A
C1517      C1518   1.401       .  A
C1517      H1522   1.083       .  S
C1518      C1519   1.418       .  A
C1518      H1523   1.083       .  S
C1519      C1520   1.397   1_545  A
C1520      H1524   1.083       .  S
C1525      C1526   1.406       .  A
C1525      C1530   1.398       .  A
C1525      H1531   1.083       .  S
C1526      C1527   1.407       .  A
C1527      C1528   1.402       .  A
C1527      H1532   1.083       .  S
C1528      C1529   1.407       .  A
C1528      H1533   1.083       .  S
C1529      C1530   1.406       .  A
C1530      H1534   1.083       .  S
C1535      C1536   1.396       .  A
C1535      C1540   1.397       .  A
C1535      H1541   1.084   1_565  S
C1536      C1537   1.407       .  A
C1537      C1538   1.405       .  A
C1537      H1542   1.083       .  S
C1538      C1539   1.405       .  A
C1538      H1543   1.083       .  S
C1539      C1540   1.413       .  A
C1540      H1544   1.083       .  S
C1545      C1546   1.407       .  A
C1545      C1550   1.406       .  A
C1545      H1551   1.083       .  S
C1546      C1547   1.396       .  A
C1547      C1548   1.396       .  A
C1547      H1552   1.084   1_545  S
C1548      C1549   1.413       .  A
C1548      H1553   1.083       .  S
C1549      C1550   1.405       .  A
C1550      H1554   1.083       .  S
C1555      C1560   1.402       .  A
C1555      H1561   1.083       .  S
C1556      C1557   1.397       .  A
C1558      H1563   1.083       .  S
C1559      C1560   1.398       .  A
C1560      H1564   1.083       .  S
C1565      C1570   1.390       .  A
C1565      H1571   1.083       .  S
C1567      C1568   1.398       .  A
C1568      C1569   1.400       .  A
C1568      H1573   1.083       .  S
C1569      C1570   1.408       .  A
C1570      H1574   1.083       .  S
C1575      C1576   1.400       .  A
C1575      C1580   1.398       .  A
C1575      H1581   1.083       .  S
C1576      C1577   1.409       .  A
C1577      C1578   1.390       .  A
C1577      H1582   1.083       .  S
C1578      C1579   1.399       .  A
C1578      H1583   1.083       .  S
C1579      C1580   1.409       .  A
C1580      H1584   1.083       .  S
C1585      C1586   1.405       .  A
C1585      C1590   1.406       .  A
C1585      H1591   1.083       .  S
C1586      C1587   1.413       .  A
C1587      C1588   1.397       .  A
C1587      H1592   1.083       .  S
C1588      C1589   1.396       .  A
C1588      H1593   1.084       .  S
C1589      C1590   1.407       .  A
C1590      H1594   1.083       .  S
C1595      C1596   1.407       .  A
C1595      C1600   1.406       .  A
C1595      H1601   1.083       .  S
C1596      C1597   1.396       .  A
C1597      C1598   1.397       .  A
C1597      H1602   1.084       .  S
C1598      C1599   1.413       .  A
C1598      H1603   1.083       .  S
C1599      C1600   1.405       .  A
C1600      H1604   1.083       .  S
C1605      C1606   1.398       .  A
C1605      C1610   1.391       .  A
C1605      H1611   1.083       .  S
C1606      C1607   1.409       .  A
C1607      C1608   1.397       .  A
C1607      H1612   1.083       .  S
C1608      C1609   1.400       .  A
C1608      H1613   1.083       .  S
C1609      C1610   1.409       .  A
C1610      H1614   1.083       .  S
C1615      C1616   1.409       .  A
C1615      H1621   1.083       .  S
C1617      C1618   1.391       .  A
C1617      H1622   1.083       .  S
C1618      C1619   1.408       .  A
C1618      H1623   1.083       .  S
C1619      C1620   1.400       .  A
C1620      H1624   1.083       .  S
C1625      C1626   1.407       .  A
C1625      C1630   1.401       .  A
C1625      H1631   1.083       .  S
C1626      C1627   1.405       .  A
C1627      C1628   1.397       .  A
C1627      H1632   1.083       .  S
C1628      C1629   1.406       .  A
C1628      H1633   1.083       .  S
C1629      C1630   1.407       .  A
C1630      H1634   1.083       .  S
C1635      C1636   1.406       .  A
C1635      C1640   1.405       .  A
C1635      H1641   1.083       .  S
C1636      C1637   1.396       .  A
C1637      C1638   1.396       .  A
C1637      H1642   1.084   1_545  S
C1638      C1639   1.413       .  A
C1638      H1643   1.083       .  S
C1639      C1640   1.405       .  A
C1640      H1644   1.083       .  S
C1645      C1646   1.412       .  A
C1645      C1650   1.398       .  A
C1646      C1647   1.405       .  A
C1647      C1648   1.404       .  A
C1647      H1652   1.083       .  S
C1648      C1649   1.406       .  A
C1648      H1653   1.083       .  S
C1649      C1650   1.397       .  A
C1650      H1654   1.084   1_565  S
C1655      C1656   1.418       .  A
C1656      C1657   1.398   1_565  A
C1657      H1662   1.083       .  S
C1658      H1663   1.083       .  S
C1660      H1664   1.083       .  S
