geometry optimzed in LAMMPS
_audit_creation_date              2020-11-30 
_audit_creation_method            'lammps2cif' 
_symmetry_space_group_name_H-M    'P1' 
_symmetry_Int_Tables_number       1 
_symmetry_cell_setting            triclinic 
loop_ 
_symmetry_equiv_pos_as_xyz 
  x,y,z 
_cell_length_a                    47.02206338567365 
_cell_length_b                    46.542476992121706 
_cell_length_c                    26.854094747115035 
_cell_angle_alpha                 89.69485820340611 
_cell_angle_beta                  90.35253367960453 
_cell_angle_gamma                 121.40681177362111 
loop_ 
_atom_site_label 
_atom_site_type_symbol 
_atom_site_fract_x 
_atom_site_fract_y 
_atom_site_fract_z 
_atom_site_charge 
In1        In  0.33049052  0.02756650  0.13973918     1.36870
C2          C  0.39040937  0.08011050  0.12244459     0.77250
O3          O  0.34061588  0.04875649  0.21536139    -0.61190
O4          O  0.32794754  0.99780033  0.21003912    -0.52100
C5          C  0.27777728  0.03313736  0.14493125     0.69920
O6          O  0.30325230  0.05388322  0.12068625    -0.46960
C7          C  0.30611532  0.98535714  0.06154988     0.74620
O8          O  0.36394648  0.08013447  0.11622062    -0.58820
O9          O  0.31965325  0.97920130  0.09779034    -0.48910
O10         O  0.38655983  0.05174293  0.13262789    -0.55250
C11         C  0.33484463  0.02253087  0.23804404     0.84800
O12         O  0.28036917  0.01133972  0.16908279    -0.57140
O13         O  0.30764611  0.01296821  0.06549501    -0.60440
In14       In  0.47467578  0.17144354  0.14203141     1.36870
C15         C  0.42225980  0.11195160  0.12378634     0.77250
O16         O  0.48531384  0.16765629  0.06285174    -0.61190
O17         O  0.52629153  0.19868307  0.10869100    -0.52100
C18         C  0.47172005  0.22662171  0.13963724     0.69920
O19         O  0.44710658  0.19838964  0.12735130    -0.46960
C20         C  0.47770155  0.16554608  0.23989552     0.74620
O21         O  0.42333255  0.13918585  0.11515563    -0.58820
O22         O  0.49816840  0.16333072  0.21204828    -0.48910
O23         O  0.44930052  0.11489514  0.13861338    -0.55250
C24         C  0.51572148  0.19014524  0.06470706     0.84800
O25         O  0.49739619  0.22643167  0.15254981    -0.57140
O26         O  0.45657197  0.16959550  0.21730955    -0.60440
In27       In  0.47377115  0.17103310  0.39204508     1.36870
C28         C  0.42079728  0.11098312  0.40899616     0.77250
O29         O  0.45579402  0.16861410  0.31624662    -0.61190
O30         O  0.49789115  0.16317983  0.32317472    -0.52100
C31         C  0.46958874  0.22536470  0.38906602     0.69920
O32         O  0.44567058  0.19761896  0.40462158    -0.46960
C33         C  0.51542547  0.19129367  0.47034456     0.74620
O34         O  0.42206641  0.13820135  0.41849200    -0.58820
O35         O  0.52559199  0.20218057  0.42689889    -0.48910
O36         O  0.44791671  0.11420638  0.39435657    -0.55250
C37         C  0.47742330  0.16522188  0.29452075     0.84800
O38         O  0.49516716  0.22511173  0.37646950    -0.57140
O39         O  0.48578596  0.16684795  0.47109842    -0.60440
In40       In  0.32846745  0.02605842  0.39094271     1.36870
C41         C  0.38875451  0.07888884  0.40939369     0.77250
O42         O  0.30918345  0.01362762  0.46756453    -0.61190
O43         O  0.31633500  0.97722473  0.43330672    -0.52100
C44         C  0.27553176  0.03136515  0.38074559     0.69920
O45         O  0.30224914  0.05416522  0.40025574    -0.46960
C46         C  0.33423227  0.02215171  0.29288351     0.74620
O47         O  0.36216179  0.07843727  0.41681007    -0.58820
O48         O  0.32803459  0.99747872  0.32085656    -0.48910
O49         O  0.38486639  0.05080178  0.39735148    -0.55250
C50         C  0.30575081  0.98503884  0.47118180     0.84800
O51         O  0.27597940  0.00596666  0.36563344    -0.57140
O52         O  0.33847396  0.04768715  0.31549013    -0.60440
C53         C  0.29662844  0.33854214  0.01103193    -0.02810
C54         C  0.28752964  0.46249009  0.01688990    -0.02810
C55         C  0.03212981  0.33743882  0.01036790    -0.02810
C56         C  0.16308719  0.46736232  0.00994310    -0.02810
C57         C  0.16272951  0.20675231  0.01179326    -0.02810
C58         C  0.03603979  0.20872351  0.01794199    -0.02810
In59       In  0.47400412  0.31583513  0.13709710     1.36870
C60         C  0.47133522  0.25770400  0.13907801     0.77250
O61         O  0.48528167  0.33313332  0.05799360    -0.61190
O62         O  0.52475797  0.33707907  0.10113736    -0.52100
C63         C  0.42192468  0.32166879  0.12067722     0.69920
O64         O  0.42206753  0.29522961  0.11034557    -0.46960
C65         C  0.47751126  0.32524699  0.23386232     0.74620
O66         O  0.44590032  0.25921775  0.12853688    -0.58820
O67         O  0.49850874  0.34886486  0.20596124    -0.48910
O68         O  0.49725143  0.28543825  0.14887758    -0.55250
C69         C  0.51388806  0.33701228  0.05802235     0.84800
O70         O  0.44959578  0.34642382  0.13526985    -0.57140
O71         O  0.45585616  0.29920711  0.21170878    -0.60440
In72       In  0.33329359  0.31700990  0.13821557     1.36870
C73         C  0.27728857  0.25765526  0.13940310     0.77250
O74         O  0.33492268  0.30188200  0.21374282    -0.61190
O75         O  0.34282663  0.35111812  0.20582952    -0.52100
C76         C  0.39081799  0.32192227  0.12099561     0.69920
O77         O  0.36309000  0.29573470  0.11089229    -0.46960
C78         C  0.31396835  0.33775002  0.05908806     0.74620
O79         O  0.30476360  0.26036119  0.12900314    -0.58820
O80         O  0.30102473  0.33407964  0.10136704    -0.48910
O81         O  0.27894261  0.28476224  0.15003697    -0.55250
C82         C  0.33974786  0.32804043  0.23481267     0.84800
O83         O  0.38926883  0.34688370  0.13593174    -0.57140
O84         O  0.34070337  0.33759156  0.06022396    -0.60440
In85       In  0.18907201  0.02922610  0.13620136     1.36870
C86         C  0.24667939  0.03266379  0.14273372     0.77250
O87         O  0.20373945  0.05024695  0.21114470    -0.61190
O88         O  0.15796334  0.00302462  0.20568548    -0.52100
C89         C  0.18136214  0.08076718  0.12094915     0.69920
O90         O  0.20838570  0.08188990  0.11366583    -0.46960
C91         C  0.16788057  0.98893333  0.05632587     0.74620
O92         O  0.24398876  0.05548360  0.12193357    -0.58820
O93         O  0.15809105  0.97740253  0.09984412    -0.48910
O94         O  0.22010755  0.00840621  0.16004961    -0.55250
C95         C  0.17940944  0.02636221  0.23356495     0.84800
O96         O  0.15675470  0.05201346  0.13215071    -0.57140
O97         O  0.18489210  0.02060655  0.05475790    -0.60440
In98       In  0.18606970  0.17013971  0.13765439     1.36870
C99         C  0.24534086  0.22605013  0.13833210     0.77250
O100        O  0.16824173  0.16408417  0.05880490    -0.61190
O101        O  0.16453746  0.19929600  0.10262005    -0.52100
C102        C  0.18063042  0.11182329  0.12145954     0.69920
O103        O  0.20662563  0.13975860  0.11176657    -0.46960
C104        C  0.17690768  0.16438758  0.23528224     0.74620
O105        O  0.24149385  0.19859392  0.12331224    -0.58820
O106        O  0.15375671  0.16129968  0.20696892    -0.48910
O107        O  0.21913297  0.22471779  0.15194596    -0.55250
C108        C  0.16367202  0.18843727  0.05932675     0.84800
O109        O  0.15583777  0.11337115  0.13596940    -0.57140
O110        O  0.20228496  0.16869456  0.21318893    -0.60440
In111      In  0.47208052  0.31446042  0.38486828     1.36870
C112        C  0.46886475  0.25617561  0.38596995     0.77250
O113        O  0.45465333  0.29879484  0.30948692    -0.61190
O114        O  0.49766258  0.34806540  0.31690622    -0.52100
C115        C  0.42154574  0.32193029  0.40167679     0.69920
O116        O  0.42078954  0.29487054  0.41107646    -0.46960
C117        C  0.51228360  0.33533908  0.46356000     0.74620
O118        O  0.44341761  0.25789258  0.39489967    -0.58820
O119        O  0.52237943  0.33570242  0.42009237    -0.48910
O120        O  0.49476379  0.28362969  0.37508021    -0.55250
C121        C  0.47695512  0.32492723  0.28817982     0.84800
O122        O  0.44933651  0.34640631  0.38714125    -0.57140
O123        O  0.48343779  0.33080724  0.46450211    -0.60440
In124      In  0.33392871  0.31839627  0.38603044     1.36870
C125        C  0.27816123  0.25965821  0.38547907     0.77250
O126        O  0.33896718  0.33375022  0.46551588    -0.61190
O127        O  0.30526968  0.33985712  0.42100259    -0.52100
C128        C  0.39106705  0.32300538  0.40235258     0.69920
O129        O  0.36341877  0.29693681  0.41269513    -0.46960
C130        C  0.33973264  0.32825182  0.28915777     0.74620
O131        O  0.30561994  0.26224043  0.39580060    -0.58820
O132        O  0.34373161  0.35194186  0.31727821    -0.48910
O133        O  0.27961223  0.28671071  0.37466659    -0.55250
C134        C  0.31506018  0.33869999  0.46442689     0.84800
O135        O  0.38980449  0.34834194  0.38799534    -0.57140
O136        O  0.33411758  0.30195874  0.31114426    -0.60440
In137      In  0.18884509  0.03120717  0.38586147     1.36870
C138        C  0.24563554  0.03331843  0.37865607     0.77250
O139        O  0.19699084  0.01698515  0.46032580    -0.61190
O140        O  0.14925198  0.98455033  0.42915390    -0.52100
C141        C  0.18258246  0.08311231  0.40451916     0.69920
O142        O  0.20961418  0.08389637  0.40883304    -0.46960
C143        C  0.17898409  0.02684934  0.28820203     0.74620
O144        O  0.24349798  0.05592447  0.40096004    -0.58820
O145        O  0.15967787  0.00230829  0.31620289    -0.48910
O146        O  0.21937317  0.01125659  0.35719010    -0.55250
C147        C  0.16923881  0.99024653  0.46503829     0.84800
O148        O  0.15738538  0.05455445  0.39490309    -0.57140
O149        O  0.20094833  0.05272111  0.31065427    -0.60440
In150      In  0.18816718  0.17233605  0.38711693     1.36870
C151        C  0.24655469  0.22810249  0.38645353     0.77250
O152        O  0.20337103  0.17009409  0.31164038    -0.61190
O153        O  0.15475419  0.16236901  0.31836534    -0.52100
C154        C  0.18233004  0.11427401  0.40459065     0.69920
O155        O  0.20900567  0.14207611  0.41210626    -0.46960
C156        C  0.16667343  0.19063614  0.46495771     0.74620
O157        O  0.24322874  0.20078314  0.40150383    -0.58820
O158        O  0.16779791  0.20199736  0.42176036    -0.48910
O159        O  0.22027230  0.22661086  0.37230547    -0.55250
C160        C  0.17746160  0.16504662  0.28986339     0.84800
O161        O  0.15718869  0.11596607  0.39202346    -0.57140
O162        O  0.17208806  0.16685803  0.46597403    -0.60440
C163        C  0.12529005  0.22531223  0.04944002    -0.20630
C164        C  0.12910044  0.20569849  0.01328540    -0.07200
C165        C  0.09982059  0.18251223  0.98606616     0.13670
C166        C  0.07139104  0.18498154  0.98854585    -0.20680
C167        C  0.06894022  0.20795702  0.01972599    -0.07200
C168        C  0.09595967  0.22640377  0.05399711     0.13660
C169        C  0.09614135  0.24818342  0.09567673    -0.24030
H170        H  0.14606806  0.24087343  0.07403098     0.14950
H171        H  0.05016461  0.16716323  0.46663842     0.14970
C172        C  0.09578751  0.15249137  0.45789878    -0.23980
H173        H  0.11900199  0.27358381  0.09370145     0.05190
H174        H  0.09637527  0.23675799  0.13196731     0.08410
H175        H  0.07486431  0.25189354  0.09527169     0.08410
H176        H  0.10489170  0.13896653  0.98081559     0.08400
H177        H  0.10847698  0.16023391  0.42142553     0.08400
H178        H  0.06927165  0.13374976  0.44929745     0.05170
C179        C  0.06469841  0.30527202  0.01894098    -0.20630
C180        C  0.03404880  0.30429446  0.01451182    -0.07200
C181        C  0.50485108  0.27107452  0.01523725     0.13670
C182        C  0.00783180  0.24258950  0.01897830    -0.20680
C183        C  0.03845103  0.24382649  0.01634064    -0.07200
C184        C  0.06714505  0.27657223  0.01041692     0.13660
C185        C  0.09947563  0.28326128  0.98847840    -0.24030
H186        H  0.08770245  0.32878141  0.02460374     0.14950
H187        H  0.48515397  0.21817059  0.02159005     0.14970
C188        C  0.46956162  0.26371536  0.01282797    -0.23980
H189        H  0.10582354  0.30002836  0.95581863     0.05190
H190        H  0.09803261  0.26074907  0.47280642     0.08410
H191        H  0.12007623  0.29595170  0.01586746     0.08410
H192        H  0.46500516  0.27289282  0.47818344     0.08400
H193        H  0.46400552  0.27500908  0.04379203     0.08400
H194        H  0.45061932  0.23636607  0.51425054     0.05170
C195        C  0.06800394  0.40121196  0.02491520    -0.20630
C196        C  0.06572448  0.37161033  0.00625810    -0.07200
C197        C  0.09334129  0.37701345  0.97749887     0.13670
C198        C  0.12424588  0.40580774  0.98631763    -0.20680
C199        C  0.12786875  0.43493672  0.00816141    -0.07200
C200        C  0.09782831  0.43303146  0.02279638     0.13660
C201        C  0.09591527  0.46368358  0.03454305    -0.24030
H202        H  0.04596058  0.39989795  0.03954903     0.14950
H203        H  0.14521968  0.40491627  0.47370399     0.14970
C204        C  0.09247481  0.35497401  0.43557023    -0.23980
H205        H  0.06967740  0.45743361  0.03553381     0.05190
H206        H  0.10879081  0.48320462  0.00536951     0.08410
H207        H  0.10665982  0.47401738  0.07159315     0.08410
H208        H  0.06892490  0.33067345  0.43155960     0.08400
H209        H  0.11279859  0.34983371  0.94077570     0.08400
H210        H  0.09720134  0.36887746  0.39987933     0.05170
C211        C  0.20380451  0.45463270  0.05639468    -0.20630
C212        C  0.19162377  0.45900433  0.01040303    -0.07200
C213        C  0.20624953  0.45430909  0.46672845     0.13670
C214        C  0.23624523  0.45485896  0.47070893    -0.20680
C215        C  0.25150630  0.45638001  0.01671094    -0.07200
C216        C  0.23226667  0.45204132  0.06008558     0.13660
C217        C  0.23792977  0.94025639  0.10962501    -0.24030
H218        H  0.19041663  0.95184396  0.09033412     0.14950
H219        H  0.24725180  0.45252191  0.43679888     0.14970
C220        C  0.19007482  0.44428084  0.41580347    -0.23980
H221        H  0.21514195  0.91617955  0.12014772     0.05190
H222        H  0.24193273  0.95825451  0.13913633     0.08410
H223        H  0.25846372  0.43526920  0.10920667     0.08410
H224        H  0.16711570  0.44486698  0.41122085     0.08400
H225        H  0.18330258  0.41799158  0.40832164     0.08400
H226        H  0.20803336  0.45959635  0.38660737     0.05170
C227        C  0.23316084  0.30178745  0.98454119    -0.20630
C228        C  0.26160260  0.30398367  0.00725927    -0.07200
C229        C  0.25754101  0.27201776  0.01843692     0.13670
C230        C  0.22546138  0.24335886  0.02342186    -0.20680
C231        C  0.19577145  0.24268508  0.01131258    -0.07200
C232        C  0.20070046  0.27229910  0.98672667     0.13660
C233        C  0.17292852  0.27349608  0.96047976    -0.24030
H234        H  0.23622822  0.32345708  0.96455057     0.14950
H235        H  0.22382543  0.21995514  0.03300150     0.14970
C236        C  0.28587238  0.26557407  0.01729700    -0.23980
H237        H  0.18242376  0.29679317  0.93793608     0.05190
H238        H  0.15577181  0.27377356  0.98799281     0.08410
H239        H  0.15933080  0.25191303  0.43476699     0.08410
H240        H  0.30458984  0.27922672  0.04575778     0.08400
H241        H  0.29827685  0.27299012  0.48111344     0.08400
H242        H  0.27735133  0.23857431  0.02254345     0.05170
C243        C  0.26604574  0.36927841  0.03000066    -0.20630
C244        C  0.29537007  0.37131626  0.01429600    -0.07200
C245        C  0.32355927  0.40452021  0.50758756     0.13670
C246        C  0.31980339  0.43264378  0.51208292    -0.20680
C247        C  0.28832390  0.42931835  0.01704779    -0.07200
C248        C  0.26031151  0.39557625  0.02238740     0.13660
C249        C  0.22396148  0.38407749  0.01490074    -0.24030
H250        H  0.24604043  0.34606450  0.04543259     0.14950
H251        H  0.34165829  0.45769884  0.50899983     0.14970
C252        C  0.35802323  0.41131240  0.49688890    -0.23980
H253        H  0.20786983  0.35618163  0.01313789     0.05190
H254        H  0.22029966  0.39292859  0.97850643     0.08410
H255        H  0.21378460  0.39115988  0.04584772     0.08410
H256        H  0.35888357  0.40197655  0.45939887     0.08400
H257        H  0.36565855  0.39948663  0.02565642     0.08400
H258        H  0.37696282  0.43867960  0.49698383     0.05170
In259      In  0.33048932  0.02756887  0.63973769     1.36870
C260        C  0.39040813  0.08011317  0.62244311     0.77250
O261        O  0.34061333  0.04875697  0.71536115    -0.61190
O262        O  0.32794737  0.99780174  0.71003594    -0.52100
C263        C  0.27777626  0.03314006  0.64492809     0.69920
O264        O  0.30325136  0.05388570  0.62068306    -0.46960
C265        C  0.30611315  0.98535884  0.56154951     0.74620
O266        O  0.36394523  0.08013735  0.61622099    -0.58820
O267        O  0.31965174  0.97920348  0.59778949    -0.48910
O268        O  0.38655857  0.05174538  0.63262456    -0.55250
C269        C  0.33484351  0.02253134  0.73804227     0.84800
O270        O  0.28036813  0.01134275  0.66908073    -0.57140
O271        O  0.30764383  0.01296984  0.56549439    -0.60440
In272      In  0.47467501  0.17144559  0.64203096     1.36870
C273        C  0.42225866  0.11195415  0.62378493     0.77250
O274        O  0.48531436  0.16765737  0.56285202    -0.61190
O275        O  0.52629068  0.19868836  0.60869081    -0.52100
C276        C  0.47171810  0.22662309  0.63963722     0.69920
O277        O  0.44710497  0.19839092  0.62735081    -0.46960
C278        C  0.47770172  0.16554645  0.73989465     0.74620
O279        O  0.42333155  0.13918862  0.61515552    -0.58820
O280        O  0.49816808  0.16333126  0.71204606    -0.48910
O281        O  0.44929939  0.11489728  0.63861091    -0.55250
C282        C  0.51572119  0.19014875  0.56470709     0.84800
O283        O  0.49739431  0.22643340  0.65255040    -0.57140
O284        O  0.45657231  0.16959684  0.71731015    -0.60440
In285      In  0.47377238  0.17103047  0.89204469     1.36870
C286        C  0.42079835  0.11098028  0.90899446     0.77250
O287        O  0.45579453  0.16861253  0.81624712    -0.61190
O288        O  0.49789185  0.16317832  0.82317265    -0.52100
C289        C  0.46959113  0.22536278  0.88906664     0.69920
O290        O  0.44567271  0.19761717  0.90462214    -0.46960
C291        C  0.51542643  0.19128997  0.97034450     0.74620
O292        O  0.42206765  0.13819845  0.91849157    -0.58820
O293        O  0.52559331  0.20217664  0.92689883    -0.48910
O294        O  0.44791769  0.11420363  0.89435415    -0.55250
C295        C  0.47742377  0.16522092  0.79451988     0.84800
O296        O  0.49516933  0.22510938  0.87647011    -0.57140
O297        O  0.48578668  0.16684471  0.97109815    -0.60440
In298      In  0.32846813  0.02605580  0.89094157     1.36870
C299        C  0.38875547  0.07888603  0.90939174     0.77250
O300        O  0.30918666  0.01362645  0.96756486    -0.61190
O301        O  0.31633560  0.97722219  0.93330553    -0.52100
C302        C  0.27553116  0.03136038  0.88074551     0.69920
O303        O  0.30224891  0.05416162  0.90025329    -0.46960
C304        C  0.33423186  0.02215110  0.79288178     0.74620
O305        O  0.36216284  0.07843447  0.91680934    -0.58820
O306        O  0.32803582  0.99747798  0.82085346    -0.48910
O307        O  0.38486715  0.05079904  0.89734843    -0.55250
C308        C  0.30575296  0.98503717  0.97118159     0.84800
O309        O  0.27597885  0.00596144  0.86563573    -0.57140
O310        O  0.33847269  0.04768569  0.81548996    -0.60440
C311        C  0.29662669  0.33854416  0.51103240    -0.02810
C312        C  0.28752740  0.46249158  0.51688994    -0.02810
C313        C  0.03212601  0.33744063  0.51036730    -0.02810
C314        C  0.16308458  0.46736287  0.50994216    -0.02810
C315        C  0.16272780  0.20675441  0.51179341    -0.02810
C316        C  0.03603904  0.20872726  0.51794184    -0.02810
In317      In  0.47400165  0.31583624  0.63709779     1.36870
C318        C  0.47133299  0.25770522  0.63907777     0.77250
O319        O  0.48527803  0.33313451  0.55799422    -0.61190
O320        O  0.52475490  0.33708042  0.60113676    -0.52100
C321        C  0.42192247  0.32167028  0.62067859     0.69920
O322        O  0.42206511  0.29523101  0.61034686    -0.46960
C323        C  0.47751107  0.32524753  0.73386315     0.74620
O324        O  0.44589786  0.25921877  0.62853753    -0.58820
O325        O  0.49850813  0.34886543  0.70596174    -0.48910
O326        O  0.49724927  0.28543959  0.64887638    -0.55250
C327        C  0.51388447  0.33701363  0.55802215     0.84800
O328        O  0.44959353  0.34642510  0.63527184    -0.57140
O329        O  0.45585461  0.29920830  0.71170980    -0.60440
In330      In  0.33329178  0.31701159  0.63821581     1.36870
C331        C  0.27728667  0.25765727  0.63940307     0.77250
O332        O  0.33492112  0.30188206  0.71374184    -0.61190
O333        O  0.34282590  0.35111872  0.70583162    -0.52100
C334        C  0.39081598  0.32192404  0.62099617     0.69920
O335        O  0.36308806  0.29573661  0.61089202    -0.46960
C336        C  0.31396670  0.33775199  0.55908844     0.74620
O337        O  0.30476156  0.26036317  0.62900221    -0.58820
O338        O  0.30102335  0.33408199  0.60136761    -0.48910
O339        O  0.27894084  0.28476418  0.65003809    -0.55250
C340        C  0.33974743  0.32804044  0.73481328     0.84800
O341        O  0.38926688  0.34688549  0.63593238    -0.57140
O342        O  0.34070156  0.33759322  0.56022410    -0.60440
In343      In  0.18907032  0.02922754  0.63619960     1.36870
C344        C  0.24667823  0.03266615  0.64272966     0.77250
O345        O  0.20373913  0.05024648  0.71114359    -0.61190
O346        O  0.15796111  0.00302602  0.70568341    -0.52100
C347        C  0.18136073  0.08076892  0.62094945     0.69920
O348        O  0.20838407  0.08189143  0.61366439    -0.46960
C349        C  0.16787806  0.98893376  0.55632534     0.74620
O350        O  0.24398701  0.05548537  0.62192858    -0.58820
O351        O  0.15809443  0.97740300  0.59984511    -0.48910
O352        O  0.22010676  0.00840870  0.66004640    -0.55250
C353        C  0.17940861  0.02636208  0.73356347     0.84800
O354        O  0.15675347  0.05201539  0.63215251    -0.57140
O355        O  0.18488226  0.02060719  0.55475541    -0.60440
In356      In  0.18606826  0.17014148  0.63765413     1.36870
C357        C  0.24533901  0.22605214  0.63833190     0.77250
O358        O  0.16824023  0.16408624  0.55880473    -0.61190
O359        O  0.16453546  0.19929757  0.60262036    -0.52100
C360        C  0.18062901  0.11182505  0.62145960     0.69920
O361        O  0.20662407  0.13976032  0.61176579    -0.46960
C362        C  0.17690776  0.16438838  0.73528219     0.74620
O363        O  0.24149208  0.19859624  0.62331059    -0.58820
O364        O  0.15375623  0.16130053  0.70697016    -0.48910
O365        O  0.21913118  0.22471943  0.65194711    -0.55250
C366        C  0.16367026  0.18843918  0.55932686     0.84800
O367        O  0.15583644  0.11337295  0.63596977    -0.57140
O368        O  0.20228497  0.16869629  0.71318755    -0.60440
In369      In  0.47208423  0.31445919  0.88486897     1.36870
C370        C  0.46886759  0.25617395  0.88597038     0.77250
O371        O  0.45465615  0.29879398  0.80948798    -0.61190
O372        O  0.49766500  0.34806482  0.81690685    -0.52100
C373        C  0.42154894  0.32192835  0.90167817     0.69920
O374        O  0.42079309  0.29486875  0.91107781    -0.46960
C375        C  0.51228802  0.33533764  0.96356010     0.74620
O376        O  0.44342087  0.25789143  0.89490131    -0.58820
O377        O  0.52238326  0.33569871  0.92009284    -0.48910
O378        O  0.49476657  0.28362770  0.87507913    -0.55250
C379        C  0.47695691  0.32492689  0.78818071     0.84800
O380        O  0.44933970  0.34640463  0.88714313    -0.57140
O381        O  0.48344319  0.33080833  0.96450158    -0.60440
In382      In  0.33393135  0.31839407  0.88603091     1.36870
C383        C  0.27816390  0.25965574  0.88547947     0.77250
O384        O  0.33896930  0.33374825  0.96551624    -0.61190
O385        O  0.30527172  0.33985454  0.92100234    -0.52100
C386        C  0.39106997  0.32300310  0.90235325     0.69920
O387        O  0.36342162  0.29693438  0.91269493    -0.46960
C388        C  0.33973390  0.32825116  0.78915842     0.74620
O389        O  0.30562265  0.26223795  0.89580068    -0.58820
O390        O  0.34373347  0.35194077  0.81728032    -0.48910
O391        O  0.27961492  0.28670828  0.87466744    -0.55250
C392        C  0.31506216  0.33869779  0.96442678     0.84800
O393        O  0.38980730  0.34833964  0.88799624    -0.57140
O394        O  0.33411967  0.30195791  0.81114346    -0.60440
In395      In  0.18884537  0.03120416  0.88586008     1.36870
C396        C  0.24563484  0.03331349  0.87865550     0.77250
O397        O  0.19699138  0.01698484  0.96032598    -0.61190
O398        O  0.14925341  0.98454720  0.92915339    -0.52100
C399        C  0.18258346  0.08310970  0.90451766     0.69920
O400        O  0.20961507  0.08389348  0.90883110    -0.46960
C401        C  0.17898422  0.02684795  0.78820068     0.74620
O402        O  0.24349839  0.05592139  0.90095557    -0.58820
O403        O  0.15967658  0.00230726  0.81620107    -0.48910
O404        O  0.21937164  0.01125036  0.85719262    -0.55250
C405        C  0.16924021  0.99024523  0.96503861     0.84800
O406        O  0.15738610  0.05455190  0.89490219    -0.57140
O407        O  0.20095043  0.05271828  0.81065333    -0.60440
In408      In  0.18816908  0.17233411  0.88711678     1.36870
C409        C  0.24655719  0.22810012  0.88645380     0.77250
O410        O  0.20337192  0.17009309  0.81163907    -0.61190
O411        O  0.15475526  0.16236805  0.81836660    -0.52100
C412        C  0.18233145  0.11427162  0.90458923     0.69920
O413        O  0.20900729  0.14207356  0.91210452    -0.46960
C414        C  0.16667534  0.19063411  0.96495772     0.74620
O415        O  0.24323090  0.20078046  0.90150327    -0.58820
O416        O  0.16779979  0.20199529  0.92176039    -0.48910
O417        O  0.22027491  0.22660896  0.87230646    -0.55250
C418        C  0.17746231  0.16504620  0.78986337     0.84800
O419        O  0.15719023  0.11596403  0.89202266    -0.57140
O420        O  0.17209028  0.16685620  0.96597412    -0.60440
C421        C  0.12528884  0.22531487  0.54944022    -0.20630
C422        C  0.12909899  0.20570100  0.51328558    -0.07200
C423        C  0.09981927  0.18251542  0.48606559     0.13670
C424        C  0.07139018  0.18498550  0.48854473    -0.20680
C425        C  0.06893955  0.20796096  0.51972520    -0.07200
C426        C  0.09595885  0.22640717  0.55399677     0.13660
C427        C  0.09614072  0.24818684  0.59567651    -0.24030
H428        H  0.14606677  0.24087564  0.57403155     0.14950
H429        H  0.05016535  0.16715889  0.96664006     0.14970
C430        C  0.09578935  0.15248844  0.95789926    -0.23980
H431        H  0.11900193  0.27358686  0.59370213     0.05190
H432        H  0.09637363  0.23676080  0.63196705     0.08410
H433        H  0.07486431  0.25189794  0.59527072     0.08410
H434        H  0.10488956  0.13896920  0.48081512     0.08400
H435        H  0.10847888  0.16023121  0.92142608     0.08400
H436        H  0.06927359  0.13374656  0.94929778     0.05170
C437        C  0.06469600  0.30527549  0.51893949    -0.20630
C438        C  0.03404583  0.30429687  0.51451112    -0.07200
C439        C  0.50484859  0.27107664  0.51523756     0.13670
C440        C  0.00783021  0.24259222  0.51897914    -0.20680
C441        C  0.03844979  0.24383000  0.51634088    -0.07200
C442        C  0.06714343  0.27657605  0.51041676     0.13660
C443        C  0.09947462  0.28326578  0.48847972    -0.24030
H444        H  0.08769980  0.32878552  0.52460024     0.14950
H445        H  0.48515274  0.21817303  0.52159167     0.14970
C446        C  0.46955876  0.26371647  0.51282829    -0.23980
H447        H  0.10582337  0.30003373  0.45582079     0.05190
H448        H  0.09803318  0.26074423  0.97280564     0.08410
H449        H  0.12007455  0.29595575  0.51586992     0.08410
H450        H  0.46500864  0.27289301  0.97818396     0.08400
H451        H  0.46400236  0.27501056  0.54379156     0.08400
H452        H  0.45062164  0.23636507  0.01424875     0.05170
C453        C  0.06800184  0.40121300  0.52492119    -0.20630
C454        C  0.06572068  0.37161215  0.50625698    -0.07200
C455        C  0.09333572  0.37701594  0.47749199     0.13670
C456        C  0.12424078  0.40581077  0.48630679    -0.20680
C457        C  0.12786548  0.43493817  0.50815929    -0.07200
C458        C  0.09782625  0.43303229  0.52280291     0.13660
C459        C  0.09591412  0.46368378  0.53455853    -0.24030
H460        H  0.04595972  0.39989886  0.53956060     0.14950
H461        H  0.14522586  0.40491225  0.97372133     0.14970
C462        C  0.09248214  0.35497287  0.93557660    -0.23980
H463        H  0.06967653  0.45743474  0.53554839     0.05190
H464        H  0.10879172  0.48320828  0.50539008     0.08410
H465        H  0.10665692  0.47401239  0.57161153     0.08410
H466        H  0.06893156  0.33067338  0.93156193     0.08400
H467        H  0.11279238  0.34983620  0.44076653     0.08400
H468        H  0.09721186  0.36887812  0.89988677     0.05170
C469        C  0.20380014  0.45463035  0.55639361    -0.20630
C470        C  0.19162008  0.45900317  0.51040210    -0.07200
C471        C  0.20625147  0.45430782  0.96672953     0.13670
C472        C  0.23624724  0.45485769  0.97070919    -0.20680
C473        C  0.25150389  0.45638102  0.51671086    -0.07200
C474        C  0.23226358  0.45204117  0.56008516     0.13660
C475        C  0.23792778  0.94025788  0.60962528    -0.24030
H476        H  0.19041123  0.95183944  0.59033261     0.14950
H477        H  0.24725304  0.45251961  0.93679905     0.14970
C478        C  0.19007376  0.44427556  0.91580697    -0.23980
H479        H  0.21514067  0.91618077  0.62014918     0.05190
H480        H  0.24193033  0.95825661  0.63913553     0.08410
H481        H  0.25846245  0.43527179  0.60920748     0.08410
H482        H  0.16711400  0.44486076  0.91122650     0.08400
H483        H  0.18330146  0.41798586  0.90832903     0.08400
H484        H  0.20803028  0.45958904  0.88660743     0.05170
C485        C  0.23315914  0.30178957  0.48454163    -0.20630
C486        C  0.26160086  0.30398572  0.50725971    -0.07200
C487        C  0.25753926  0.27201979  0.51843711     0.13670
C488        C  0.22545965  0.24336088  0.52342194    -0.20680
C489        C  0.19576974  0.24268714  0.51131269    -0.07200
C490        C  0.20069877  0.27230121  0.48672688     0.13660
C491        C  0.17292691  0.27349826  0.46047975    -0.24030
H492        H  0.23622654  0.32345928  0.46455118     0.14950
H493        H  0.22382368  0.21995713  0.53300140     0.14970
C494        C  0.28587061  0.26557608  0.51729684    -0.23980
H495        H  0.18242229  0.29679530  0.43793588     0.05190
H496        H  0.15577020  0.27377596  0.48799260     0.08410
H497        H  0.15933245  0.25191089  0.93476691     0.08410
H498        H  0.30458818  0.27922872  0.54575745     0.08400
H499        H  0.29827873  0.27298807  0.98111365     0.08400
H500        H  0.27734957  0.23857632  0.52254318     0.05170
C501        C  0.26604405  0.36928021  0.53000182    -0.20630
C502        C  0.29536833  0.37131819  0.51429680    -0.07200
C503        C  0.32356108  0.40451827  0.00758689     0.13670
C504        C  0.31980534  0.43264195  0.01208246    -0.20680
C505        C  0.28832186  0.42931999  0.51704816    -0.07200
C506        C  0.26030958  0.39557783  0.52238827     0.13660
C507        C  0.22395941  0.38407863  0.51490185    -0.24030
H508        H  0.24603889  0.34606628  0.54543397     0.14950
H509        H  0.34166031  0.45769698  0.00899947     0.14970
C510        C  0.35802497  0.41131036  0.99688804    -0.23980
H511        H  0.20786811  0.35618277  0.51313826     0.05190
H512        H  0.22029731  0.39292994  0.47850794     0.08410
H513        H  0.21378230  0.39116025  0.54584948     0.08410
H514        H  0.35888518  0.40197449  0.95939795     0.08400
H515        H  0.36565680  0.39948874  0.52565739     0.08400
H516        H  0.37696463  0.43867754  0.99698294     0.05170
In517      In  0.33049052  0.52756651  0.13973916     1.36870
C518        C  0.39040937  0.58011052  0.12244458     0.77250
O519        O  0.34061587  0.54875649  0.21536138    -0.61190
O520        O  0.32794754  0.49780034  0.21003910    -0.52100
C521        C  0.27777728  0.53313737  0.14493122     0.69920
O522        O  0.30325230  0.55388322  0.12068622    -0.46960
C523        C  0.30611532  0.48535715  0.06154988     0.74620
O524        O  0.36394648  0.58013449  0.11622061    -0.58820
O525        O  0.31965325  0.47920131  0.09779034    -0.48910
O526        O  0.38655983  0.55174294  0.13262788    -0.55250
C527        C  0.33484463  0.52253087  0.23804403     0.84800
O528        O  0.28036917  0.51133973  0.16908277    -0.57140
O529        O  0.30764611  0.51296821  0.06549500    -0.60440
In530      In  0.47467578  0.67144354  0.14203142     1.36870
C531        C  0.42225980  0.61195161  0.12378634     0.77250
O532        O  0.48531388  0.66765624  0.06285178    -0.61190
O533        O  0.52629154  0.69868314  0.10869102    -0.52100
C534        C  0.47172004  0.72662170  0.13963724     0.69920
O535        O  0.44710658  0.69838964  0.12735127    -0.46960
C536        C  0.47770155  0.66554608  0.23989553     0.74620
O537        O  0.42333255  0.63918586  0.11515563    -0.58820
O538        O  0.49816840  0.66333073  0.21204829    -0.48910
O539        O  0.44930051  0.61489514  0.13861339    -0.55250
C540        C  0.51572150  0.69014525  0.06470708     0.84800
O541        O  0.49739618  0.72643167  0.15254984    -0.57140
O542        O  0.45657197  0.66959549  0.21730956    -0.60440
In543      In  0.47377115  0.67103310  0.39204508     1.36870
C544        C  0.42079729  0.61098312  0.40899617     0.77250
O545        O  0.45579402  0.66861410  0.31624663    -0.61190
O546        O  0.49789115  0.66317983  0.32317473    -0.52100
C547        C  0.46958874  0.72536470  0.38906602     0.69920
O548        O  0.44567058  0.69761896  0.40462159    -0.46960
C549        C  0.51542547  0.69129367  0.47034457     0.74620
O550        O  0.42206641  0.63820135  0.41849201    -0.58820
O551        O  0.52559199  0.70218057  0.42689889    -0.48910
O552        O  0.44791671  0.61420638  0.39435658    -0.55250
C553        C  0.47742330  0.66522188  0.29452076     0.84800
O554        O  0.49516716  0.72511172  0.37646950    -0.57140
O555        O  0.48578596  0.66684796  0.47109844    -0.60440
In556      In  0.32846746  0.52605842  0.39094271     1.36870
C557        C  0.38875451  0.57888884  0.40939369     0.77250
O558        O  0.30918345  0.51362762  0.46756452    -0.61190
O559        O  0.31633500  0.47722474  0.43330672    -0.52100
C560        C  0.27553176  0.53136516  0.38074558     0.69920
O561        O  0.30224915  0.55416522  0.40025573    -0.46960
C562        C  0.33423227  0.52215172  0.29288350     0.74620
O563        O  0.36216179  0.57843727  0.41681007    -0.58820
O564        O  0.32803459  0.49747872  0.32085654    -0.48910
O565        O  0.38486639  0.55080178  0.39735148    -0.55250
C566        C  0.30575081  0.48503885  0.47118179     0.84800
O567        O  0.27597940  0.50596666  0.36563344    -0.57140
O568        O  0.33847396  0.54768715  0.31549012    -0.60440
C569        C  0.29662843  0.83854214  0.01103193    -0.02810
C570        C  0.28752964  0.96249009  0.01688991    -0.02810
C571        C  0.03212982  0.83743882  0.01036791    -0.02810
C572        C  0.16308719  0.96736232  0.00994310    -0.02810
C573        C  0.16272950  0.70675231  0.01179323    -0.02810
C574        C  0.03603978  0.70872351  0.01794201    -0.02810
In575      In  0.47400410  0.81583513  0.13709710     1.36870
C576        C  0.47133521  0.75770399  0.13907801     0.77250
O577        O  0.48528166  0.83313333  0.05799360    -0.61190
O578        O  0.52475796  0.83707906  0.10113736    -0.52100
C579        C  0.42192467  0.82166878  0.12067722     0.69920
O580        O  0.42206751  0.79522960  0.11034557    -0.46960
C581        C  0.47751126  0.82524699  0.23386232     0.74620
O582        O  0.44590031  0.75921774  0.12853687    -0.58820
O583        O  0.49850874  0.84886486  0.20596124    -0.48910
O584        O  0.49725141  0.78543825  0.14887759    -0.55250
C585        C  0.51388805  0.83701228  0.05802235     0.84800
O586        O  0.44959577  0.84642382  0.13526985    -0.57140
O587        O  0.45585615  0.79920711  0.21170878    -0.60440
In588      In  0.33329358  0.81700989  0.13821558     1.36870
C589        C  0.27728856  0.75765526  0.13940310     0.77250
O590        O  0.33492267  0.80188199  0.21374283    -0.61190
O591        O  0.34282663  0.85111811  0.20582953    -0.52100
C592        C  0.39081797  0.82192227  0.12099562     0.69920
O593        O  0.36308999  0.79573470  0.11089230    -0.46960
C594        C  0.31396835  0.83775002  0.05908806     0.74620
O595        O  0.30476359  0.76036119  0.12900315    -0.58820
O596        O  0.30102472  0.83407964  0.10136705    -0.48910
O597        O  0.27894260  0.78476224  0.15003697    -0.55250
C598        C  0.33974785  0.82804042  0.23481269     0.84800
O599        O  0.38926882  0.84688370  0.13593175    -0.57140
O600        O  0.34070336  0.83759155  0.06022397    -0.60440
In601      In  0.18907201  0.52922610  0.13620134     1.36870
C602        C  0.24667938  0.53266380  0.14273369     0.77250
O603        O  0.20373945  0.55024695  0.21114469    -0.61190
O604        O  0.15796333  0.50302463  0.20568547    -0.52100
C605        C  0.18136213  0.58076718  0.12094914     0.69920
O606        O  0.20838569  0.58188990  0.11366582    -0.46960
C607        C  0.16788056  0.48893333  0.05632587     0.74620
O608        O  0.24398875  0.55548360  0.12193354    -0.58820
O609        O  0.15809108  0.47740252  0.09984413    -0.48910
O610        O  0.22010755  0.50840622  0.16004959    -0.55250
C611        C  0.17940944  0.52636221  0.23356494     0.84800
O612        O  0.15675470  0.55201346  0.13215071    -0.57140
O613        O  0.18489205  0.52060654  0.05475788    -0.60440
In614      In  0.18606969  0.67013971  0.13765437     1.36870
C615        C  0.24534084  0.72605013  0.13833210     0.77250
O616        O  0.16824174  0.66408417  0.05880487    -0.61190
O617        O  0.16453744  0.69929599  0.10262003    -0.52100
C618        C  0.18063041  0.61182328  0.12145953     0.69920
O619        O  0.20662562  0.63975860  0.11176655    -0.46960
C620        C  0.17690767  0.66438758  0.23528222     0.74620
O621        O  0.24149384  0.69859392  0.12331223    -0.58820
O622        O  0.15375671  0.66129967  0.20696890    -0.48910
O623        O  0.21913296  0.72471779  0.15194594    -0.55250
C624        C  0.16367201  0.68843727  0.05932673     0.84800
O625        O  0.15583776  0.61337115  0.13596938    -0.57140
O626        O  0.20228495  0.66869456  0.21318891    -0.60440
In627      In  0.47208053  0.81446042  0.38486828     1.36870
C628        C  0.46886475  0.75617561  0.38596996     0.77250
O629        O  0.45465333  0.79879484  0.30948692    -0.61190
O630        O  0.49766258  0.84806540  0.31690621    -0.52100
C631        C  0.42154574  0.82193029  0.40167680     0.69920
O632        O  0.42078955  0.79487054  0.41107646    -0.46960
C633        C  0.51228360  0.83533909  0.46356000     0.74620
O634        O  0.44341761  0.75789258  0.39489968    -0.58820
O635        O  0.52237944  0.83570241  0.42009237    -0.48910
O636        O  0.49476379  0.78362968  0.37508021    -0.55250
C637        C  0.47695512  0.82492723  0.28817982     0.84800
O638        O  0.44933651  0.84640631  0.38714125    -0.57140
O639        O  0.48343780  0.83080726  0.46450210    -0.60440
In640      In  0.33392871  0.81839626  0.38603045     1.36870
C641        C  0.27816124  0.75965821  0.38547907     0.77250
O642        O  0.33896718  0.83375022  0.46551589    -0.61190
O643        O  0.30526967  0.83985711  0.42100259    -0.52100
C644        C  0.39106706  0.82300537  0.40235259     0.69920
O645        O  0.36341877  0.79693681  0.41269514    -0.46960
C646        C  0.33973264  0.82825181  0.28915778     0.74620
O647        O  0.30561995  0.76224043  0.39580062    -0.58820
O648        O  0.34373161  0.85194185  0.31727822    -0.48910
O649        O  0.27961224  0.78671070  0.37466658    -0.55250
C650        C  0.31506018  0.83869998  0.46442689     0.84800
O651        O  0.38980450  0.84834194  0.38799535    -0.57140
O652        O  0.33411759  0.80195873  0.31114427    -0.60440
In653      In  0.18884509  0.53120717  0.38586147     1.36870
C654        C  0.24563555  0.53331844  0.37865606     0.77250
O655        O  0.19699084  0.51698514  0.46032579    -0.61190
O656        O  0.14925198  0.48455033  0.42915389    -0.52100
C657        C  0.18258247  0.58311231  0.40451915     0.69920
O658        O  0.20961419  0.58389637  0.40883303    -0.46960
C659        C  0.17898409  0.52684934  0.28820202     0.74620
O660        O  0.24349799  0.55592446  0.40096003    -0.58820
O661        O  0.15967787  0.50230829  0.31620289    -0.48910
O662        O  0.21937317  0.51125660  0.35719009    -0.55250
C663        C  0.16923881  0.49024652  0.46503828     0.84800
O664        O  0.15738539  0.55455445  0.39490309    -0.57140
O665        O  0.20094833  0.55272111  0.31065427    -0.60440
In666      In  0.18816718  0.67233604  0.38711691     1.36870
C667        C  0.24655470  0.72810248  0.38645352     0.77250
O668        O  0.20337102  0.67009407  0.31164035    -0.61190
O669        O  0.15475419  0.66236901  0.31836533    -0.52100
C670        C  0.18233004  0.61427401  0.40459063     0.69920
O671        O  0.20900568  0.64207612  0.41210624    -0.46960
C672        C  0.16667343  0.69063615  0.46495768     0.74620
O673        O  0.24322875  0.70078314  0.40150384    -0.58820
O674        O  0.16779796  0.70199740  0.42176034    -0.48910
O675        O  0.22027231  0.72661085  0.37230543    -0.55250
C676        C  0.17746160  0.66504661  0.28986337     0.84800
O677        O  0.15718870  0.61596606  0.39202344    -0.57140
O678        O  0.17208802  0.66685800  0.46597399    -0.60440
C679        C  0.12529004  0.72531222  0.04944001    -0.20630
C680        C  0.12910044  0.70569849  0.01328537    -0.07200
C681        C  0.09982059  0.68251225  0.98606611     0.13670
C682        C  0.07139104  0.68498156  0.98854583    -0.20680
C683        C  0.06894021  0.70795701  0.01972599    -0.07200
C684        C  0.09595966  0.72640376  0.05399711     0.13660
C685        C  0.09614135  0.74818341  0.09567674    -0.24030
H686        H  0.14606805  0.74087341  0.07403097     0.14950
H687        H  0.05016461  0.66716327  0.46663836     0.14970
C688        C  0.09578752  0.65249144  0.45789861    -0.23980
H689        H  0.11900199  0.77358380  0.09370147     0.05190
H690        H  0.09637526  0.73675797  0.13196732     0.08410
H691        H  0.07486431  0.75189354  0.09527170     0.08410
H692        H  0.10489169  0.63896654  0.98081545     0.08400
H693        H  0.10847702  0.66023403  0.42142539     0.08400
H694        H  0.06927166  0.63374984  0.44929722     0.05170
C695        C  0.06469841  0.80527202  0.01894099    -0.20630
C696        C  0.03404880  0.80429447  0.01451183    -0.07200
C697        C  0.50485108  0.77107453  0.01523726     0.13670
C698        C  0.00783180  0.74258950  0.01897831    -0.20680
C699        C  0.03845103  0.74382649  0.01634065    -0.07200
C700        C  0.06714504  0.77657223  0.01041693     0.13660
C701        C  0.09947563  0.78326128  0.98847842    -0.24030
H702        H  0.08770245  0.82878141  0.02460375     0.14950
H703        H  0.48515398  0.71817059  0.02159010     0.14970
C704        C  0.46956162  0.76371536  0.01282797    -0.23980
H705        H  0.10582354  0.80002836  0.95581865     0.05190
H706        H  0.09803261  0.76074908  0.47280645     0.08410
H707        H  0.12007623  0.79595170  0.01586748     0.08410
H708        H  0.46500517  0.77289283  0.47818344     0.08400
H709        H  0.46400552  0.77500908  0.04379203     0.08400
H710        H  0.45061932  0.73636607  0.51425053     0.05170
C711        C  0.06800394  0.90121197  0.02491518    -0.20630
C712        C  0.06572449  0.87161033  0.00625811    -0.07200
C713        C  0.09334130  0.87701345  0.97749889     0.13670
C714        C  0.12424589  0.90580774  0.98631767    -0.20680
C715        C  0.12786875  0.93493673  0.00816142    -0.07200
C716        C  0.09782831  0.93303146  0.02279636     0.13660
C717        C  0.09591527  0.96368360  0.03454300    -0.24030
H718        H  0.04596058  0.89989796  0.03954899     0.14950
H719        H  0.14521969  0.90491627  0.47370401     0.14970
C720        C  0.09247482  0.85497401  0.43557025    -0.23980
H721        H  0.06967740  0.95743362  0.03553376     0.05190
H722        H  0.10879080  0.98320461  0.00536945     0.08410
H723        H  0.10665983  0.97401740  0.07159309     0.08410
H724        H  0.06892490  0.83067345  0.43155962     0.08400
H725        H  0.11279861  0.84983371  0.94077572     0.08400
H726        H  0.09720134  0.86887746  0.39987935     0.05170
C727        C  0.20380452  0.95463272  0.05639469    -0.20630
C728        C  0.19162377  0.95900434  0.01040304    -0.07200
C729        C  0.20624952  0.95430909  0.46672845     0.13670
C730        C  0.23624523  0.95485895  0.47070893    -0.20680
C731        C  0.25150630  0.95638001  0.01671094    -0.07200
C732        C  0.23226667  0.95204132  0.06008559     0.13660
C733        C  0.23792977  0.44025638  0.10962500    -0.24030
H734        H  0.19041663  0.45184394  0.09033411     0.14950
H735        H  0.24725179  0.95252191  0.43679888     0.14970
C736        C  0.19007482  0.94428084  0.41580348    -0.23980
H737        H  0.21514196  0.41617955  0.12014772     0.05190
H738        H  0.24193273  0.45825451  0.13913632     0.08410
H739        H  0.25846371  0.93526919  0.10920668     0.08410
H740        H  0.16711569  0.94486697  0.41122086     0.08400
H741        H  0.18330257  0.91799158  0.40832166     0.08400
H742        H  0.20803335  0.95959634  0.38660737     0.05170
C743        C  0.23316084  0.80178745  0.98454119    -0.20630
C744        C  0.26160260  0.80398367  0.00725927    -0.07200
C745        C  0.25754100  0.77201776  0.01843692     0.13670
C746        C  0.22546138  0.74335886  0.02342185    -0.20680
C747        C  0.19577144  0.74268508  0.01131257    -0.07200
C748        C  0.20070046  0.77229910  0.98672666     0.13660
C749        C  0.17292852  0.77349608  0.96047976    -0.24030
H750        H  0.23622822  0.82345709  0.96455058     0.14950
H751        H  0.22382543  0.71995513  0.03300148     0.14970
C752        C  0.28587238  0.76557407  0.01729700    -0.23980
H753        H  0.18242376  0.79679318  0.93793609     0.05190
H754        H  0.15577180  0.77377356  0.98799280     0.08410
H755        H  0.15933081  0.75191304  0.43476698     0.08410
H756        H  0.30458983  0.77922672  0.04575779     0.08400
H757        H  0.29827685  0.77299012  0.48111345     0.08400
H758        H  0.27735132  0.73857431  0.02254345     0.05170
C759        C  0.26604574  0.86927841  0.03000066    -0.20630
C760        C  0.29537007  0.87131625  0.01429601    -0.07200
C761        C  0.32355927  0.90452021  0.50758756     0.13670
C762        C  0.31980338  0.93264378  0.51208292    -0.20680
C763        C  0.28832390  0.92931835  0.01704779    -0.07200
C764        C  0.26031151  0.89557625  0.02238740     0.13660
C765        C  0.22396148  0.88407749  0.01490074    -0.24030
H766        H  0.24604043  0.84606450  0.04543259     0.14950
H767        H  0.34165828  0.95769884  0.50899983     0.14970
C768        C  0.35802322  0.91131240  0.49688890    -0.23980
H769        H  0.20786983  0.85618163  0.01313790     0.05190
H770        H  0.22029965  0.89292859  0.97850643     0.08410
H771        H  0.21378460  0.89115989  0.04584772     0.08410
H772        H  0.35888356  0.90197655  0.45939887     0.08400
H773        H  0.36565855  0.89948663  0.02565641     0.08400
H774        H  0.37696282  0.93867960  0.49698383     0.05170
In775      In  0.33048932  0.52756888  0.63973768     1.36870
C776        C  0.39040813  0.58011319  0.62244311     0.77250
O777        O  0.34061333  0.54875698  0.71536115    -0.61190
O778        O  0.32794738  0.49780175  0.71003593    -0.52100
C779        C  0.27777627  0.53314008  0.64492807     0.69920
O780        O  0.30325136  0.55388570  0.62068303    -0.46960
C781        C  0.30611315  0.48535885  0.56154950     0.74620
O782        O  0.36394524  0.58013737  0.61622100    -0.58820
O783        O  0.31965175  0.47920349  0.59778948    -0.48910
O784        O  0.38655858  0.55174539  0.63262455    -0.55250
C785        C  0.33484351  0.52253135  0.73804226     0.84800
O786        O  0.28036814  0.51134277  0.66908072    -0.57140
O787        O  0.30764384  0.51296985  0.56549437    -0.60440
In788      In  0.47467502  0.67144560  0.64203098     1.36870
C789        C  0.42225867  0.61195417  0.62378494     0.77250
O790        O  0.48531437  0.66765738  0.56285204    -0.61190
O791        O  0.52629069  0.69868838  0.60869082    -0.52100
C792        C  0.47171811  0.72662310  0.63963723     0.69920
O793        O  0.44710498  0.69839093  0.62735082    -0.46960
C794        C  0.47770173  0.66554646  0.73989466     0.74620
O795        O  0.42333156  0.63918864  0.61515553    -0.58820
O796        O  0.49816808  0.66333127  0.71204608    -0.48910
O797        O  0.44929940  0.61489729  0.63861092    -0.55250
C798        C  0.51572120  0.69014876  0.56470710     0.84800
O799        O  0.49739432  0.72643341  0.65255041    -0.57140
O800        O  0.45657232  0.66959685  0.71731017    -0.60440
In801      In  0.47377237  0.67103047  0.89204471     1.36870
C802        C  0.42079835  0.61098028  0.90899447     0.77250
O803        O  0.45579453  0.66861255  0.81624713    -0.61190
O804        O  0.49789185  0.66317832  0.82317266    -0.52100
C805        C  0.46959114  0.72536278  0.88906664     0.69920
O806        O  0.44567271  0.69761718  0.90462213    -0.46960
C807        C  0.51542642  0.69128998  0.97034452     0.74620
O808        O  0.42206765  0.63819845  0.91849157    -0.58820
O809        O  0.52559331  0.70217662  0.92689885    -0.48910
O810        O  0.44791769  0.61420364  0.89435417    -0.55250
C811        C  0.47742377  0.66522093  0.79451990     0.84800
O812        O  0.49516933  0.72510938  0.87647013    -0.57140
O813        O  0.48578666  0.66684474  0.97109818    -0.60440
In814      In  0.32846813  0.52605580  0.89094156     1.36870
C815        C  0.38875547  0.57888603  0.90939174     0.77250
O816        O  0.30918665  0.51362645  0.96756485    -0.61190
O817        O  0.31633561  0.47722219  0.93330553    -0.52100
C818        C  0.27553117  0.53136038  0.88074551     0.69920
O819        O  0.30224892  0.55416162  0.90025328    -0.46960
C820        C  0.33423187  0.52215111  0.79288177     0.74620
O821        O  0.36216284  0.57843447  0.91680934    -0.58820
O822        O  0.32803583  0.49747798  0.82085345    -0.48910
O823        O  0.38486715  0.55079904  0.89734843    -0.55250
C824        C  0.30575296  0.48503717  0.97118158     0.84800
O825        O  0.27597885  0.50596144  0.86563572    -0.57140
O826        O  0.33847270  0.54768569  0.81548996    -0.60440
C827        C  0.29662669  0.83854416  0.51103241    -0.02810
C828        C  0.28752740  0.96249157  0.51688994    -0.02810
C829        C  0.03212601  0.83744064  0.51036731    -0.02810
C830        C  0.16308458  0.96736288  0.50994216    -0.02810
C831        C  0.16272780  0.70675441  0.51179338    -0.02810
C832        C  0.03603904  0.70872726  0.51794186    -0.02810
In833      In  0.47400166  0.81583625  0.63709778     1.36870
C834        C  0.47133300  0.75770523  0.63907777     0.77250
O835        O  0.48527803  0.83313451  0.55799422    -0.61190
O836        O  0.52475491  0.83708044  0.60113676    -0.52100
C837        C  0.42192248  0.82167028  0.62067860     0.69920
O838        O  0.42206512  0.79523101  0.61034687    -0.46960
C839        C  0.47751107  0.82524754  0.73386315     0.74620
O840        O  0.44589787  0.75921878  0.62853754    -0.58820
O841        O  0.49850814  0.84886544  0.70596174    -0.48910
O842        O  0.49724928  0.78543960  0.64887638    -0.55250
C843        C  0.51388447  0.83701363  0.55802215     0.84800
O844        O  0.44959353  0.84642511  0.63527184    -0.57140
O845        O  0.45585462  0.79920831  0.71170980    -0.60440
In846      In  0.33329177  0.81701159  0.63821582     1.36870
C847        C  0.27728666  0.75765727  0.63940307     0.77250
O848        O  0.33492111  0.80188206  0.71374185    -0.61190
O849        O  0.34282590  0.85111871  0.70583164    -0.52100
C850        C  0.39081598  0.82192404  0.62099618     0.69920
O851        O  0.36308806  0.79573661  0.61089203    -0.46960
C852        C  0.31396670  0.83775199  0.55908845     0.74620
O853        O  0.30476156  0.76036317  0.62900223    -0.58820
O854        O  0.30102335  0.83408199  0.60136762    -0.48910
O855        O  0.27894083  0.78476418  0.65003808    -0.55250
C856        C  0.33974742  0.82804044  0.73481329     0.84800
O857        O  0.38926688  0.84688549  0.63593239    -0.57140
O858        O  0.34070156  0.83759321  0.56022411    -0.60440
In859      In  0.18907032  0.52922755  0.63619959     1.36870
C860        C  0.24667823  0.53266616  0.64272964     0.77250
O861        O  0.20373914  0.55024648  0.71114358    -0.61190
O862        O  0.15796111  0.50302602  0.70568341    -0.52100
C863        C  0.18136073  0.58076892  0.62094944     0.69920
O864        O  0.20838407  0.58189143  0.61366438    -0.46960
C865        C  0.16787806  0.48893376  0.55632533     0.74620
O866        O  0.24398701  0.55548538  0.62192855    -0.58820
O867        O  0.15809445  0.47740300  0.59984511    -0.48910
O868        O  0.22010677  0.50840871  0.66004639    -0.55250
C869        C  0.17940861  0.52636208  0.73356347     0.84800
O870        O  0.15675347  0.55201539  0.63215251    -0.57140
O871        O  0.18488224  0.52060719  0.55475540    -0.60440
In872      In  0.18606826  0.67014147  0.63765411     1.36870
C873        C  0.24533901  0.72605214  0.63833189     0.77250
O874        O  0.16824025  0.66408625  0.55880470    -0.61190
O875        O  0.16453543  0.69929755  0.60262034    -0.52100
C876        C  0.18062901  0.61182505  0.62145959     0.69920
O877        O  0.20662406  0.63976032  0.61176577    -0.46960
C878        C  0.17690776  0.66438839  0.73528217     0.74620
O879        O  0.24149208  0.69859624  0.62331060    -0.58820
O880        O  0.15375622  0.66130052  0.70697014    -0.48910
O881        O  0.21913117  0.72471943  0.65194708    -0.55250
C882        C  0.16367025  0.68843917  0.55932683     0.84800
O883        O  0.15583643  0.61337295  0.63596976    -0.57140
O884        O  0.20228497  0.66869630  0.71318753    -0.60440
In885      In  0.47208423  0.81445920  0.88486897     1.36870
C886        C  0.46886759  0.75617395  0.88597038     0.77250
O887        O  0.45465616  0.79879398  0.80948798    -0.61190
O888        O  0.49766501  0.84806483  0.81690685    -0.52100
C889        C  0.42154894  0.82192836  0.90167818     0.69920
O890        O  0.42079310  0.79486876  0.91107781    -0.46960
C891        C  0.51228801  0.83533764  0.96356010     0.74620
O892        O  0.44342087  0.75789144  0.89490129    -0.58820
O893        O  0.52238326  0.83569871  0.92009284    -0.48910
O894        O  0.49476658  0.78362771  0.87507914    -0.55250
C895        C  0.47695692  0.82492690  0.78818071     0.84800
O896        O  0.44933971  0.84640463  0.88714313    -0.57140
O897        O  0.48344318  0.83080832  0.96450158    -0.60440
In898      In  0.33393135  0.81839407  0.88603092     1.36870
C899        C  0.27816390  0.75965574  0.88547947     0.77250
O900        O  0.33896930  0.83374825  0.96551625    -0.61190
O901        O  0.30527172  0.83985454  0.92100234    -0.52100
C902        C  0.39106997  0.82300310  0.90235326     0.69920
O903        O  0.36342162  0.79693438  0.91269494    -0.46960
C904        C  0.33973390  0.82825116  0.78915843     0.74620
O905        O  0.30562266  0.76223795  0.89580069    -0.58820
O906        O  0.34373347  0.85194076  0.81728033    -0.48910
O907        O  0.27961493  0.78670827  0.87466743    -0.55250
C908        C  0.31506216  0.83869779  0.96442678     0.84800
O909        O  0.38980730  0.84833964  0.88799625    -0.57140
O910        O  0.33411968  0.80195791  0.81114347    -0.60440
In911      In  0.18884537  0.53120416  0.88586007     1.36870
C912        C  0.24563485  0.53331349  0.87865549     0.77250
O913        O  0.19699138  0.51698484  0.96032597    -0.61190
O914        O  0.14925342  0.48454720  0.92915339    -0.52100
C915        C  0.18258347  0.58310970  0.90451766     0.69920
O916        O  0.20961508  0.58389348  0.90883109    -0.46960
C917        C  0.17898423  0.52684796  0.78820068     0.74620
O918        O  0.24349840  0.55592139  0.90095558    -0.58820
O919        O  0.15967659  0.50230726  0.81620107    -0.48910
O920        O  0.21937165  0.51125037  0.85719261    -0.55250
C921        C  0.16924021  0.49024522  0.96503861     0.84800
O922        O  0.15738611  0.55455190  0.89490219    -0.57140
O923        O  0.20095044  0.55271828  0.81065333    -0.60440
In924      In  0.18816909  0.67233411  0.88711676     1.36870
C925        C  0.24655720  0.72810011  0.88645380     0.77250
O926        O  0.20337192  0.67009309  0.81163904    -0.61190
O927        O  0.15475526  0.66236806  0.81836658    -0.52100
C928        C  0.18233146  0.61427162  0.90458922     0.69920
O929        O  0.20900730  0.64207357  0.91210451    -0.46960
C930        C  0.16667534  0.69063411  0.96495769     0.74620
O931        O  0.24323090  0.70078046  0.90150327    -0.58820
O932        O  0.16779981  0.70199531  0.92176037    -0.48910
O933        O  0.22027492  0.72660895  0.87230644    -0.55250
C934        C  0.17746231  0.66504620  0.78986335     0.84800
O935        O  0.15719024  0.61596403  0.89202264    -0.57140
O936        O  0.17209025  0.66685619  0.96597409    -0.60440
C937        C  0.12528883  0.72531485  0.54944022    -0.20630
C938        C  0.12909898  0.70570100  0.51328555    -0.07200
C939        C  0.09981927  0.68251545  0.48606552     0.13670
C940        C  0.07139019  0.68498552  0.48854469    -0.20680
C941        C  0.06893955  0.70796096  0.51972520    -0.07200
C942        C  0.09595885  0.72640716  0.55399678     0.13660
C943        C  0.09614072  0.74818682  0.59567653    -0.24030
H944        H  0.14606677  0.74087561  0.57403155     0.14950
H945        H  0.05016535  0.66715891  0.96664003     0.14970
C946        C  0.09578936  0.65248848  0.95789915    -0.23980
H947        H  0.11900195  0.77358683  0.59370217     0.05190
H948        H  0.09637361  0.73676077  0.63196706     0.08410
H949        H  0.07486433  0.75189795  0.59527073     0.08410
H950        H  0.10488955  0.63896922  0.48081491     0.08400
H951        H  0.10847891  0.66023128  0.92142598     0.08400
H952        H  0.06927360  0.63374661  0.94929762     0.05170
C953        C  0.06469600  0.80527550  0.51893952    -0.20630
C954        C  0.03404582  0.80429687  0.51451113    -0.07200
C955        C  0.50484860  0.77107665  0.51523756     0.13670
C956        C  0.00783021  0.74259222  0.51897917    -0.20680
C957        C  0.03844979  0.74383000  0.51634091    -0.07200
C958        C  0.06714343  0.77657605  0.51041679     0.13660
C959        C  0.09947463  0.78326579  0.48847976    -0.24030
H960        H  0.08769979  0.82878553  0.52460027     0.14950
H961        H  0.48515275  0.71817304  0.52159168     0.14970
C962        C  0.46955876  0.76371647  0.51282829    -0.23980
H963        H  0.10582339  0.80003374  0.45582084     0.05190
H964        H  0.09803318  0.76074422  0.97280565     0.08410
H965        H  0.12007455  0.79595574  0.51586997     0.08410
H966        H  0.46500864  0.77289300  0.97818395     0.08400
H967        H  0.46400237  0.77501056  0.54379156     0.08400
H968        H  0.45062165  0.73636507  0.01424876     0.05170
C969        C  0.06800183  0.90121300  0.52492119    -0.20630
C970        C  0.06572068  0.87161216  0.50625700    -0.07200
C971        C  0.09333572  0.87701594  0.47749201     0.13670
C972        C  0.12424079  0.90581077  0.48630681    -0.20680
C973        C  0.12786548  0.93493817  0.50815930    -0.07200
C974        C  0.09782625  0.93303229  0.52280290     0.13660
C975        C  0.09591411  0.96368379  0.53455850    -0.24030
H976        H  0.04595971  0.89989886  0.53956060     0.14950
H977        H  0.14522587  0.90491224  0.97372137     0.14970
C978        C  0.09248215  0.85497287  0.93557662    -0.23980
H979        H  0.06967653  0.95743475  0.53554837     0.05190
H980        H  0.10879172  0.98320828  0.50539004     0.08410
H981        H  0.10665692  0.97401241  0.57161149     0.08410
H982        H  0.06893157  0.83067339  0.93156195     0.08400
H983        H  0.11279238  0.84983620  0.44076655     0.08400
H984        H  0.09721188  0.86887813  0.89988680     0.05170
C985        C  0.20380014  0.95463035  0.55639361    -0.20630
C986        C  0.19162007  0.95900318  0.51040210    -0.07200
C987        C  0.20625147  0.95430782  0.96672953     0.13670
C988        C  0.23624724  0.95485770  0.97070919    -0.20680
C989        C  0.25150388  0.95638101  0.51671086    -0.07200
C990        C  0.23226358  0.95204117  0.56008516     0.13660
C991        C  0.23792779  0.44025789  0.60962528    -0.24030
H992        H  0.19041123  0.45183944  0.59033261     0.14950
H993        H  0.24725303  0.95251960  0.93679905     0.14970
C994        C  0.19007376  0.94427556  0.91580698    -0.23980
H995        H  0.21514068  0.41618078  0.62014919     0.05190
H996        H  0.24193034  0.45825662  0.63913552     0.08410
H997        H  0.25846244  0.93527178  0.60920748     0.08410
H998        H  0.16711399  0.94486075  0.91122652     0.08400
H999        H  0.18330145  0.91798585  0.90832905     0.08400
H1000       H  0.20803027  0.95958903  0.88660743     0.05170
C1001       C  0.23315914  0.80178957  0.48454163    -0.20630
C1002       C  0.26160086  0.80398572  0.50725971    -0.07200
C1003       C  0.25753926  0.77201978  0.51843711     0.13670
C1004       C  0.22545964  0.74336088  0.52342193    -0.20680
C1005       C  0.19576974  0.74268714  0.51131268    -0.07200
C1006       C  0.20069877  0.77230122  0.48672688     0.13660
C1007       C  0.17292691  0.77349826  0.46047976    -0.24030
H1008       H  0.23622654  0.82345928  0.46455118     0.14950
H1009       H  0.22382368  0.71995712  0.53300138     0.14970
C1010       C  0.28587061  0.76557608  0.51729684    -0.23980
H1011       H  0.18242229  0.79679531  0.43793590     0.05190
H1012       H  0.15577020  0.77377595  0.48799261     0.08410
H1013       H  0.15933245  0.75191090  0.93476690     0.08410
H1014       H  0.30458817  0.77922872  0.54575746     0.08400
H1015       H  0.29827873  0.77298807  0.98111366     0.08400
H1016       H  0.27734957  0.73857632  0.52254318     0.05170
C1017       C  0.26604405  0.86928021  0.53000182    -0.20630
C1018       C  0.29536833  0.87131819  0.51429680    -0.07200
C1019       C  0.32356108  0.90451827  0.00758689     0.13670
C1020       C  0.31980534  0.93264195  0.01208246    -0.20680
C1021       C  0.28832186  0.92931998  0.51704816    -0.07200
C1022       C  0.26030958  0.89557782  0.52238827     0.13660
C1023       C  0.22395941  0.88407863  0.51490185    -0.24030
H1024       H  0.24603889  0.84606627  0.54543398     0.14950
H1025       H  0.34166031  0.95769697  0.00899947     0.14970
C1026       C  0.35802497  0.91131035  0.99688803    -0.23980
H1027       H  0.20786811  0.85618276  0.51313825     0.05190
H1028       H  0.22029731  0.89292994  0.47850793     0.08410
H1029       H  0.21378230  0.89116025  0.54584947     0.08410
H1030       H  0.35888518  0.90197449  0.95939795     0.08400
H1031       H  0.36565680  0.89948873  0.52565739     0.08400
H1032       H  0.37696463  0.93867753  0.99698294     0.05170
In1033     In  0.83049052  0.02756651  0.13973917     1.36870
C1034       C  0.89040937  0.08011051  0.12244458     0.77250
O1035       O  0.84061587  0.04875649  0.21536138    -0.61190
O1036       O  0.82794754  0.99780034  0.21003911    -0.52100
C1037       C  0.77777728  0.03313737  0.14493123     0.69920
O1038       O  0.80325230  0.05388322  0.12068623    -0.46960
C1039       C  0.80611533  0.98535715  0.06154988     0.74620
O1040       O  0.86394649  0.08013448  0.11622061    -0.58820
O1041       O  0.81965325  0.97920131  0.09779034    -0.48910
O1042       O  0.88655983  0.05174293  0.13262788    -0.55250
C1043       C  0.83484463  0.02253087  0.23804403     0.84800
O1044       O  0.78036917  0.01133972  0.16908277    -0.57140
O1045       O  0.80764611  0.01296821  0.06549500    -0.60440
In1046     In  0.97467578  0.17144354  0.14203140     1.36870
C1047       C  0.92225980  0.11195160  0.12378633     0.77250
O1048       O  0.98531386  0.16765627  0.06285174    -0.61190
O1049       O  0.02629154  0.19868310  0.10869099    -0.52100
C1050       C  0.97172005  0.22662170  0.13963723     0.69920
O1051       O  0.94710658  0.19838963  0.12735128    -0.46960
C1052       C  0.97770156  0.16554608  0.23989551     0.74620
O1053       O  0.92333255  0.13918586  0.11515562    -0.58820
O1054       O  0.99816841  0.16333072  0.21204826    -0.48910
O1055       O  0.94930052  0.11489514  0.13861337    -0.55250
C1056       C  0.01572149  0.19014525  0.06470705     0.84800
O1057       O  0.99739619  0.22643167  0.15254981    -0.57140
O1058       O  0.95657197  0.16959549  0.21730954    -0.60440
In1059     In  0.97377116  0.17103310  0.39204506     1.36870
C1060       C  0.92079729  0.11098312  0.40899615     0.77250
O1061       O  0.95579403  0.16861410  0.31624661    -0.61190
O1062       O  0.99789116  0.16317983  0.32317471    -0.52100
C1063       C  0.96958875  0.22536469  0.38906601     0.69920
O1064       O  0.94567059  0.19761896  0.40462158    -0.46960
C1065       C  0.01542548  0.19129367  0.47034454     0.74620
O1066       O  0.92206642  0.13820135  0.41849199    -0.58820
O1067       O  0.02559200  0.20218058  0.42689887    -0.48910
O1068       O  0.94791671  0.11420637  0.39435656    -0.55250
C1069       C  0.97742331  0.16522188  0.29452074     0.84800
O1070       O  0.99516716  0.22511172  0.37646948    -0.57140
O1071       O  0.98578598  0.16684794  0.47109840    -0.60440
In1072     In  0.82846746  0.02605843  0.39094271     1.36870
C1073       C  0.88875452  0.07888885  0.40939368     0.77250
O1074       O  0.80918346  0.01362763  0.46756453    -0.61190
O1075       O  0.81633500  0.97722474  0.43330672    -0.52100
C1076       C  0.77553176  0.03136516  0.38074559     0.69920
O1077       O  0.80224915  0.05416523  0.40025573    -0.46960
C1078       C  0.83423227  0.02215172  0.29288351     0.74620
O1079       O  0.86216180  0.07843728  0.41681007    -0.58820
O1080       O  0.82803459  0.99747873  0.32085655    -0.48910
O1081       O  0.88486639  0.05080178  0.39735147    -0.55250
C1082       C  0.80575081  0.98503885  0.47118179     0.84800
O1083       O  0.77597940  0.00596667  0.36563344    -0.57140
O1084       O  0.83847396  0.04768716  0.31549012    -0.60440
C1085       C  0.79662843  0.33854214  0.01103193    -0.02810
C1086       C  0.78752964  0.46249009  0.01688990    -0.02810
C1087       C  0.53212982  0.33743882  0.01036790    -0.02810
C1088       C  0.66308719  0.46736232  0.00994309    -0.02810
C1089       C  0.66272950  0.20675231  0.01179326    -0.02810
C1090       C  0.53603978  0.20872351  0.01794200    -0.02810
In1091     In  0.97400411  0.31583513  0.13709710     1.36870
C1092       C  0.97133522  0.25770399  0.13907800     0.77250
O1093       O  0.98528166  0.33313332  0.05799360    -0.61190
O1094       O  0.02475797  0.33707906  0.10113735    -0.52100
C1095       C  0.92192467  0.32166878  0.12067721     0.69920
O1096       O  0.92206752  0.29522960  0.11034557    -0.46960
C1097       C  0.97751126  0.32524699  0.23386231     0.74620
O1098       O  0.94590031  0.25921774  0.12853687    -0.58820
O1099       O  0.99850874  0.34886485  0.20596124    -0.48910
O1100       O  0.99725142  0.28543825  0.14887758    -0.55250
C1101       C  0.01388805  0.33701227  0.05802234     0.84800
O1102       O  0.94959577  0.34642382  0.13526984    -0.57140
O1103       O  0.95585615  0.29920711  0.21170877    -0.60440
In1104     In  0.83329359  0.31700989  0.13821557     1.36870
C1105       C  0.77728857  0.25765526  0.13940310     0.77250
O1106       O  0.83492268  0.30188199  0.21374282    -0.61190
O1107       O  0.84282663  0.35111811  0.20582952    -0.52100
C1108       C  0.89081798  0.32192227  0.12099561     0.69920
O1109       O  0.86308999  0.29573470  0.11089229    -0.46960
C1110       C  0.81396835  0.33775002  0.05908806     0.74620
O1111       O  0.80476359  0.26036119  0.12900314    -0.58820
O1112       O  0.80102473  0.33407963  0.10136704    -0.48910
O1113       O  0.77894261  0.28476224  0.15003698    -0.55250
C1114       C  0.83974786  0.32804043  0.23481268     0.84800
O1115       O  0.88926882  0.34688370  0.13593174    -0.57140
O1116       O  0.84070337  0.33759156  0.06022397    -0.60440
In1117     In  0.68907201  0.02922610  0.13620135     1.36870
C1118       C  0.74667938  0.03266379  0.14273370     0.77250
O1119       O  0.70373946  0.05024695  0.21114470    -0.61190
O1120       O  0.65796333  0.00302463  0.20568548    -0.52100
C1121       C  0.68136214  0.08076718  0.12094915     0.69920
O1122       O  0.70838570  0.08188990  0.11366583    -0.46960
C1123       C  0.66788056  0.98893333  0.05632588     0.74620
O1124       O  0.74398875  0.05548360  0.12193355    -0.58820
O1125       O  0.65809108  0.97740252  0.09984413    -0.48910
O1126       O  0.72010755  0.00840622  0.16004960    -0.55250
C1127       C  0.67940944  0.02636221  0.23356495     0.84800
O1128       O  0.65675470  0.05201346  0.13215072    -0.57140
O1129       O  0.68489205  0.02060654  0.05475789    -0.60440
In1130     In  0.68606970  0.17013971  0.13765439     1.36870
C1131       C  0.74534085  0.22605013  0.13833211     0.77250
O1132       O  0.66824172  0.16408416  0.05880490    -0.61190
O1133       O  0.66453745  0.19929600  0.10262006    -0.52100
C1134       C  0.68063042  0.11182329  0.12145954     0.69920
O1135       O  0.70662563  0.13975860  0.11176657    -0.46960
C1136       C  0.67690767  0.16438758  0.23528224     0.74620
O1137       O  0.74149384  0.19859392  0.12331224    -0.58820
O1138       O  0.65375671  0.16129968  0.20696892    -0.48910
O1139       O  0.71913297  0.22471779  0.15194597    -0.55250
C1140       C  0.66367202  0.18843727  0.05932676     0.84800
O1141       O  0.65583777  0.11337115  0.13596940    -0.57140
O1142       O  0.70228495  0.16869456  0.21318894    -0.60440
In1143     In  0.97208052  0.31446042  0.38486827     1.36870
C1144       C  0.96886475  0.25617560  0.38596995     0.77250
O1145       O  0.95465333  0.29879483  0.30948692    -0.61190
O1146       O  0.99766258  0.34806539  0.31690621    -0.52100
C1147       C  0.92154574  0.32193028  0.40167679     0.69920
O1148       O  0.92078954  0.29487053  0.41107645    -0.46960
C1149       C  0.01228360  0.33533908  0.46355999     0.74620
O1150       O  0.94341761  0.25789257  0.39489968    -0.58820
O1151       O  0.02237944  0.33570241  0.42009237    -0.48910
O1152       O  0.99476379  0.28362968  0.37508020    -0.55250
C1153       C  0.97695512  0.32492722  0.28817982     0.84800
O1154       O  0.94933651  0.34640630  0.38714124    -0.57140
O1155       O  0.98343780  0.33080725  0.46450210    -0.60440
In1156     In  0.83392871  0.31839626  0.38603044     1.36870
C1157       C  0.77816123  0.25965821  0.38547907     0.77250
O1158       O  0.83896718  0.33375022  0.46551589    -0.61190
O1159       O  0.80526967  0.33985712  0.42100259    -0.52100
C1160       C  0.89106705  0.32300537  0.40235258     0.69920
O1161       O  0.86341877  0.29693680  0.41269513    -0.46960
C1162       C  0.83973264  0.32825181  0.28915777     0.74620
O1163       O  0.80561995  0.26224043  0.39580061    -0.58820
O1164       O  0.84373162  0.35194186  0.31727822    -0.48910
O1165       O  0.77961223  0.28671070  0.37466658    -0.55250
C1166       C  0.81506019  0.33869998  0.46442689     0.84800
O1167       O  0.88980449  0.34834194  0.38799534    -0.57140
O1168       O  0.83411758  0.30195873  0.31114426    -0.60440
In1169     In  0.68884509  0.03120717  0.38586148     1.36870
C1170       C  0.74563554  0.03331844  0.37865607     0.77250
O1171       O  0.69699084  0.01698515  0.46032580    -0.61190
O1172       O  0.64925198  0.98455034  0.42915390    -0.52100
C1173       C  0.68258246  0.08311231  0.40451916     0.69920
O1174       O  0.70961418  0.08389638  0.40883304    -0.46960
C1175       C  0.67898409  0.02684934  0.28820203     0.74620
O1176       O  0.74349798  0.05592447  0.40096004    -0.58820
O1177       O  0.65967787  0.00230830  0.31620289    -0.48910
O1178       O  0.71937317  0.01125660  0.35719010    -0.55250
C1179       C  0.66923881  0.99024653  0.46503829     0.84800
O1180       O  0.65738538  0.05455446  0.39490310    -0.57140
O1181       O  0.70094833  0.05272111  0.31065427    -0.60440
In1182     In  0.68816718  0.17233605  0.38711693     1.36870
C1183       C  0.74655469  0.22810249  0.38645353     0.77250
O1184       O  0.70337102  0.17009407  0.31164038    -0.61190
O1185       O  0.65475419  0.16236902  0.31836535    -0.52100
C1186       C  0.68233004  0.11427401  0.40459065     0.69920
O1187       O  0.70900567  0.14207612  0.41210627    -0.46960
C1188       C  0.66667343  0.19063615  0.46495771     0.74620
O1189       O  0.74322874  0.20078314  0.40150384    -0.58820
O1190       O  0.66779794  0.20199739  0.42176036    -0.48910
O1191       O  0.72027231  0.22661086  0.37230545    -0.55250
C1192       C  0.67746160  0.16504662  0.28986339     0.84800
O1193       O  0.65718869  0.11596607  0.39202346    -0.57140
O1194       O  0.67208803  0.16685802  0.46597402    -0.60440
C1195       C  0.62529005  0.22531223  0.04944002    -0.20630
C1196       C  0.62910044  0.20569849  0.01328540    -0.07200
C1197       C  0.59982058  0.18251223  0.98606616     0.13670
C1198       C  0.57139104  0.18498154  0.98854586    -0.20680
C1199       C  0.56894021  0.20795701  0.01972600    -0.07200
C1200       C  0.59595966  0.22640377  0.05399712     0.13660
C1201       C  0.59614134  0.24818342  0.09567674    -0.24030
H1202       H  0.64606805  0.24087343  0.07403098     0.14950
H1203       H  0.55016461  0.16716326  0.46663838     0.14970
C1204       C  0.59578752  0.15249142  0.45789867    -0.23980
H1205       H  0.61900198  0.27358381  0.09370146     0.05190
H1206       H  0.59637527  0.23675798  0.13196732     0.08410
H1207       H  0.57486429  0.25189353  0.09527171     0.08410
H1208       H  0.60489170  0.13896652  0.98081560     0.08400
H1209       H  0.60847701  0.16023399  0.42142544     0.08400
H1210       H  0.56927166  0.13374982  0.44929730     0.05170
C1211       C  0.56469841  0.30527202  0.01894098    -0.20630
C1212       C  0.53404880  0.30429446  0.01451183    -0.07200
C1213       C  0.00485108  0.27107452  0.01523724     0.13670
C1214       C  0.50783180  0.24258950  0.01897830    -0.20680
C1215       C  0.53845103  0.24382648  0.01634064    -0.07200
C1216       C  0.56714504  0.27657222  0.01041692     0.13660
C1217       C  0.59947563  0.28326127  0.98847841    -0.24030
H1218       H  0.58770245  0.32878141  0.02460375     0.14950
H1219       H  0.98515398  0.21817059  0.02159005     0.14970
C1220       C  0.96956162  0.26371535  0.01282796    -0.23980
H1221       H  0.60582354  0.30002835  0.95581863     0.05190
H1222       H  0.59803261  0.26074907  0.47280645     0.08410
H1223       H  0.62007623  0.29595170  0.01586746     0.08410
H1224       H  0.96500516  0.27289282  0.47818344     0.08400
H1225       H  0.96400552  0.27500907  0.04379202     0.08400
H1226       H  0.95061932  0.23636606  0.51425052     0.05170
C1227       C  0.56800394  0.40121196  0.02491517    -0.20630
C1228       C  0.56572449  0.37161033  0.00625810    -0.07200
C1229       C  0.59334130  0.37701345  0.97749889     0.13670
C1230       C  0.62424589  0.40580774  0.98631766    -0.20680
C1231       C  0.62786875  0.43493673  0.00816141    -0.07200
C1232       C  0.59782831  0.43303146  0.02279635     0.13660
C1233       C  0.59591527  0.46368359  0.03454299    -0.24030
H1234       H  0.54596058  0.39989796  0.03954899     0.14950
H1235       H  0.64521967  0.40491627  0.47370395     0.14970
C1236       C  0.59247480  0.35497400  0.43557022    -0.23980
H1237       H  0.56967740  0.45743362  0.03553375     0.05190
H1238       H  0.60879080  0.48320461  0.00536944     0.08410
H1239       H  0.60665982  0.47401740  0.07159309     0.08410
H1240       H  0.56892489  0.33067344  0.43155961     0.08400
H1241       H  0.61279860  0.34983371  0.94077572     0.08400
H1242       H  0.59720131  0.36887745  0.39987932     0.05170
C1243       C  0.70380452  0.45463272  0.05639468    -0.20630
C1244       C  0.69162377  0.45900434  0.01040303    -0.07200
C1245       C  0.70624953  0.45430909  0.46672845     0.13670
C1246       C  0.73624523  0.45485895  0.47070893    -0.20680
C1247       C  0.75150630  0.45638001  0.01671094    -0.07200
C1248       C  0.73226667  0.45204132  0.06008558     0.13660
C1249       C  0.73792977  0.94025638  0.10962500    -0.24030
H1250       H  0.69041663  0.95184394  0.09033412     0.14950
H1251       H  0.74725180  0.45252191  0.43679889     0.14970
C1252       C  0.69007483  0.44428084  0.41580347    -0.23980
H1253       H  0.71514196  0.91617954  0.12014772     0.05190
H1254       H  0.74193273  0.95825451  0.13913633     0.08410
H1255       H  0.75846371  0.43526920  0.10920667     0.08410
H1256       H  0.66711571  0.44486698  0.41122085     0.08400
H1257       H  0.68330259  0.41799159  0.40832164     0.08400
H1258       H  0.70803337  0.45959635  0.38660737     0.05170
C1259       C  0.73316084  0.30178745  0.98454119    -0.20630
C1260       C  0.76160260  0.30398367  0.00725927    -0.07200
C1261       C  0.75754101  0.27201776  0.01843692     0.13670
C1262       C  0.72546138  0.24335886  0.02342186    -0.20680
C1263       C  0.69577144  0.24268508  0.01131258    -0.07200
C1264       C  0.70070046  0.27229910  0.98672667     0.13660
C1265       C  0.67292851  0.27349607  0.96047976    -0.24030
H1266       H  0.73622822  0.32345708  0.96455057     0.14950
H1267       H  0.72382543  0.21995514  0.03300151     0.14970
C1268       C  0.78587238  0.26557407  0.01729700    -0.23980
H1269       H  0.68242376  0.29679317  0.93793608     0.05190
H1270       H  0.65577180  0.27377356  0.98799281     0.08410
H1271       H  0.65933080  0.25191305  0.43476701     0.08410
H1272       H  0.80458984  0.27922672  0.04575778     0.08400
H1273       H  0.79827685  0.27299012  0.48111344     0.08400
H1274       H  0.77735132  0.23857431  0.02254346     0.05170
C1275       C  0.76604574  0.36927841  0.03000066    -0.20630
C1276       C  0.79537007  0.37131625  0.01429600    -0.07200
C1277       C  0.82355928  0.40452021  0.50758756     0.13670
C1278       C  0.81980339  0.43264378  0.51208292    -0.20680
C1279       C  0.78832390  0.42931835  0.01704778    -0.07200
C1280       C  0.76031151  0.39557625  0.02238740     0.13660
C1281       C  0.72396148  0.38407749  0.01490074    -0.24030
H1282       H  0.74604043  0.34606450  0.04543259     0.14950
H1283       H  0.84165829  0.45769884  0.50899983     0.14970
C1284       C  0.85802323  0.41131240  0.49688889    -0.23980
H1285       H  0.70786982  0.35618163  0.01313790     0.05190
H1286       H  0.72029965  0.39292859  0.97850643     0.08410
H1287       H  0.71378460  0.39115989  0.04584772     0.08410
H1288       H  0.85888356  0.40197655  0.45939885     0.08400
H1289       H  0.86565855  0.39948663  0.02565642     0.08400
H1290       H  0.87696282  0.43867960  0.49698381     0.05170
In1291     In  0.83048933  0.02756888  0.63973768     1.36870
C1292       C  0.89040814  0.08011318  0.62244311     0.77250
O1293       O  0.84061334  0.04875698  0.71536115    -0.61190
O1294       O  0.82794738  0.99780175  0.71003594    -0.52100
C1295       C  0.77777627  0.03314007  0.64492808     0.69920
O1296       O  0.80325137  0.05388570  0.62068305    -0.46960
C1297       C  0.80611315  0.98535885  0.56154950     0.74620
O1298       O  0.86394524  0.08013736  0.61622099    -0.58820
O1299       O  0.81965175  0.97920348  0.59778948    -0.48910
O1300       O  0.88655858  0.05174538  0.63262455    -0.55250
C1301       C  0.83484351  0.02253134  0.73804227     0.84800
O1302       O  0.78036814  0.01134276  0.66908073    -0.57140
O1303       O  0.80764384  0.01296985  0.56549438    -0.60440
In1304     In  0.97467502  0.17144560  0.64203095     1.36870
C1305       C  0.92225867  0.11195416  0.62378493     0.77250
O1306       O  0.98531435  0.16765741  0.56285200    -0.61190
O1307       O  0.02629069  0.19868833  0.60869080    -0.52100
C1308       C  0.97171812  0.22662310  0.63963722     0.69920
O1309       O  0.94710499  0.19839093  0.62735082    -0.46960
C1310       C  0.97770173  0.16554646  0.73989464     0.74620
O1311       O  0.92333156  0.13918863  0.61515552    -0.58820
O1312       O  0.99816809  0.16333126  0.71204605    -0.48910
O1313       O  0.94929940  0.11489729  0.63861090    -0.55250
C1314       C  0.01572120  0.19014875  0.56470707     0.84800
O1315       O  0.99739433  0.22643341  0.65255038    -0.57140
O1316       O  0.95657233  0.16959686  0.71731014    -0.60440
In1317     In  0.97377238  0.17103047  0.89204468     1.36870
C1318       C  0.92079835  0.11098028  0.90899445     0.77250
O1319       O  0.95579454  0.16861255  0.81624711    -0.61190
O1320       O  0.99789185  0.16317832  0.82317264    -0.52100
C1321       C  0.96959114  0.22536278  0.88906663     0.69920
O1322       O  0.94567271  0.19761718  0.90462212    -0.46960
C1323       C  0.01542643  0.19128998  0.97034449     0.74620
O1324       O  0.92206766  0.13819845  0.91849156    -0.58820
O1325       O  0.02559332  0.20217663  0.92689883    -0.48910
O1326       O  0.94791770  0.11420364  0.89435414    -0.55250
C1327       C  0.97742378  0.16522093  0.79451987     0.84800
O1328       O  0.99516934  0.22510939  0.87647011    -0.57140
O1329       O  0.98578668  0.16684472  0.97109814    -0.60440
In1330     In  0.82846813  0.02605580  0.89094156     1.36870
C1331       C  0.88875548  0.07888604  0.90939173     0.77250
O1332       O  0.80918666  0.01362645  0.96756485    -0.61190
O1333       O  0.81633561  0.97722219  0.93330553    -0.52100
C1334       C  0.77553117  0.03136039  0.88074551     0.69920
O1335       O  0.80224892  0.05416163  0.90025329    -0.46960
C1336       C  0.83423187  0.02215111  0.79288177     0.74620
O1337       O  0.86216285  0.07843448  0.91680934    -0.58820
O1338       O  0.82803583  0.99747798  0.82085346    -0.48910
O1339       O  0.88486715  0.05079905  0.89734842    -0.55250
C1340       C  0.80575296  0.98503718  0.97118158     0.84800
O1341       O  0.77597885  0.00596145  0.86563572    -0.57140
O1342       O  0.83847270  0.04768569  0.81548996    -0.60440
C1343       C  0.79662669  0.33854416  0.51103240    -0.02810
C1344       C  0.78752741  0.46249157  0.51688995    -0.02810
C1345       C  0.53212600  0.33744063  0.51036731    -0.02810
C1346       C  0.66308458  0.46736287  0.50994216    -0.02810
C1347       C  0.66272779  0.20675441  0.51179340    -0.02810
C1348       C  0.53603903  0.20872726  0.51794186    -0.02810
In1349     In  0.97400166  0.31583624  0.63709778     1.36870
C1350       C  0.97133301  0.25770523  0.63907777     0.77250
O1351       O  0.98527803  0.33313450  0.55799421    -0.61190
O1352       O  0.02475491  0.33708043  0.60113675    -0.52100
C1353       C  0.92192248  0.32167028  0.62067859     0.69920
O1354       O  0.92206512  0.29523101  0.61034686    -0.46960
C1355       C  0.97751107  0.32524754  0.73386315     0.74620
O1356       O  0.94589787  0.25921878  0.62853754    -0.58820
O1357       O  0.99850814  0.34886544  0.70596174    -0.48910
O1358       O  0.99724929  0.28543960  0.64887637    -0.55250
C1359       C  0.01388447  0.33701363  0.55802214     0.84800
O1360       O  0.94959354  0.34642511  0.63527183    -0.57140
O1361       O  0.95585463  0.29920830  0.71170980    -0.60440
In1362     In  0.83329178  0.31701159  0.63821581     1.36870
C1363       C  0.77728667  0.25765727  0.63940307     0.77250
O1364       O  0.83492112  0.30188206  0.71374184    -0.61190
O1365       O  0.84282590  0.35111871  0.70583163    -0.52100
C1366       C  0.89081599  0.32192404  0.62099618     0.69920
O1367       O  0.86308806  0.29573661  0.61089202    -0.46960
C1368       C  0.81396671  0.33775199  0.55908844     0.74620
O1369       O  0.80476156  0.26036317  0.62900222    -0.58820
O1370       O  0.80102336  0.33408199  0.60136762    -0.48910
O1371       O  0.77894084  0.28476418  0.65003808    -0.55250
C1372       C  0.83974743  0.32804044  0.73481328     0.84800
O1373       O  0.88926689  0.34688549  0.63593238    -0.57140
O1374       O  0.84070156  0.33759321  0.56022410    -0.60440
In1375     In  0.68907033  0.02922755  0.63619960     1.36870
C1376       C  0.74667824  0.03266616  0.64272966     0.77250
O1377       O  0.70373914  0.05024648  0.71114360    -0.61190
O1378       O  0.65796112  0.00302602  0.70568342    -0.52100
C1379       C  0.68136073  0.08076893  0.62094946     0.69920
O1380       O  0.70838407  0.08189143  0.61366440    -0.46960
C1381       C  0.66787806  0.98893377  0.55632534     0.74620
O1382       O  0.74398701  0.05548538  0.62192858    -0.58820
O1383       O  0.65809444  0.97740300  0.59984512    -0.48910
O1384       O  0.72010677  0.00840871  0.66004640    -0.55250
C1385       C  0.67940861  0.02636208  0.73356348     0.84800
O1386       O  0.65675347  0.05201540  0.63215252    -0.57140
O1387       O  0.68488226  0.02060720  0.55475541    -0.60440
In1388     In  0.68606826  0.17014148  0.63765413     1.36870
C1389       C  0.74533901  0.22605214  0.63833189     0.77250
O1390       O  0.66824023  0.16408625  0.55880472    -0.61190
O1391       O  0.66453545  0.19929757  0.60262036    -0.52100
C1392       C  0.68062901  0.11182505  0.62145961     0.69920
O1393       O  0.70662406  0.13976032  0.61176579    -0.46960
C1394       C  0.67690776  0.16438839  0.73528219     0.74620
O1395       O  0.74149208  0.19859624  0.62331060    -0.58820
O1396       O  0.65375622  0.16130053  0.70697016    -0.48910
O1397       O  0.71913118  0.22471943  0.65194710    -0.55250
C1398       C  0.66367025  0.18843918  0.55932686     0.84800
O1399       O  0.65583644  0.11337295  0.63596978    -0.57140
O1400       O  0.70228497  0.16869631  0.71318755    -0.60440
In1401     In  0.97208423  0.31445920  0.88486896     1.36870
C1402       C  0.96886759  0.25617395  0.88597037     0.77250
O1403       O  0.95465616  0.29879398  0.80948798    -0.61190
O1404       O  0.99766500  0.34806482  0.81690685    -0.52100
C1405       C  0.92154894  0.32192835  0.90167817     0.69920
O1406       O  0.92079309  0.29486875  0.91107781    -0.46960
C1407       C  0.01228801  0.33533764  0.96356010     0.74620
O1408       O  0.94342087  0.25789143  0.89490129    -0.58820
O1409       O  0.02238326  0.33569871  0.92009284    -0.48910
O1410       O  0.99476658  0.28362771  0.87507913    -0.55250
C1411       C  0.97695692  0.32492689  0.78818070     0.84800
O1412       O  0.94933970  0.34640463  0.88714313    -0.57140
O1413       O  0.98344318  0.33080832  0.96450158    -0.60440
In1414     In  0.83393135  0.31839407  0.88603091     1.36870
C1415       C  0.77816389  0.25965574  0.88547947     0.77250
O1416       O  0.83896930  0.33374825  0.96551624    -0.61190
O1417       O  0.80527172  0.33985454  0.92100234    -0.52100
C1418       C  0.89106997  0.32300310  0.90235325     0.69920
O1419       O  0.86342161  0.29693438  0.91269493    -0.46960
C1420       C  0.83973390  0.32825116  0.78915842     0.74620
O1421       O  0.80562265  0.26223795  0.89580068    -0.58820
O1422       O  0.84373347  0.35194076  0.81728033    -0.48910
O1423       O  0.77961492  0.28670828  0.87466744    -0.55250
C1424       C  0.81506216  0.33869779  0.96442678     0.84800
O1425       O  0.88980730  0.34833964  0.88799625    -0.57140
O1426       O  0.83411967  0.30195790  0.81114347    -0.60440
In1427     In  0.68884537  0.03120416  0.88586008     1.36870
C1428       C  0.74563485  0.03331349  0.87865550     0.77250
O1429       O  0.69699138  0.01698484  0.96032598    -0.61190
O1430       O  0.64925342  0.98454720  0.92915340    -0.52100
C1431       C  0.68258347  0.08310970  0.90451767     0.69920
O1432       O  0.70961507  0.08389348  0.90883110    -0.46960
C1433       C  0.67898423  0.02684796  0.78820069     0.74620
O1434       O  0.74349840  0.05592139  0.90095559    -0.58820
O1435       O  0.65967659  0.00230726  0.81620108    -0.48910
O1436       O  0.71937165  0.01125037  0.85719262    -0.55250
C1437       C  0.66924021  0.99024523  0.96503861     0.84800
O1438       O  0.65738610  0.05455190  0.89490219    -0.57140
O1439       O  0.70095044  0.05271828  0.81065334    -0.60440
In1440     In  0.68816908  0.17233411  0.88711678     1.36870
C1441       C  0.74655719  0.22810012  0.88645381     0.77250
O1442       O  0.70337192  0.17009310  0.81163906    -0.61190
O1443       O  0.65475526  0.16236805  0.81836660    -0.52100
C1444       C  0.68233146  0.11427162  0.90458924     0.69920
O1445       O  0.70900729  0.14207357  0.91210452    -0.46960
C1446       C  0.66667534  0.19063411  0.96495772     0.74620
O1447       O  0.74323090  0.20078046  0.90150327    -0.58820
O1448       O  0.66779978  0.20199529  0.92176039    -0.48910
O1449       O  0.72027491  0.22660896  0.87230647    -0.55250
C1450       C  0.67746231  0.16504621  0.78986336     0.84800
O1451       O  0.65719023  0.11596403  0.89202266    -0.57140
O1452       O  0.67209028  0.16685620  0.96597412    -0.60440
C1453       C  0.62528883  0.22531486  0.54944023    -0.20630
C1454       C  0.62909898  0.20570100  0.51328557    -0.07200
C1455       C  0.59981927  0.18251544  0.48606555     0.13670
C1456       C  0.57139018  0.18498552  0.48854471    -0.20680
C1457       C  0.56893954  0.20796096  0.51972521    -0.07200
C1458       C  0.59595884  0.22640716  0.55399679     0.13660
C1459       C  0.59614071  0.24818682  0.59567654    -0.24030
H1460       H  0.64606676  0.24087562  0.57403157     0.14950
H1461       H  0.55016534  0.16715888  0.96664007     0.14970
C1462       C  0.59578935  0.15248843  0.95789927    -0.23980
H1463       H  0.61900193  0.27358683  0.59370217     0.05190
H1464       H  0.59637360  0.23676077  0.63196706     0.08410
H1465       H  0.57486431  0.25189795  0.59527073     0.08410
H1466       H  0.60488955  0.13896922  0.48081499     0.08400
H1467       H  0.60847888  0.16023120  0.92142609     0.08400
H1468       H  0.56927359  0.13374655  0.94929779     0.05170
C1469       C  0.56469599  0.30527549  0.51893951    -0.20630
C1470       C  0.53404582  0.30429687  0.51451113    -0.07200
C1471       C  0.00484860  0.27107664  0.51523754     0.13670
C1472       C  0.50783020  0.24259222  0.51897917    -0.20680
C1473       C  0.53844979  0.24383000  0.51634090    -0.07200
C1474       C  0.56714342  0.27657605  0.51041678     0.13660
C1475       C  0.59947462  0.28326579  0.48847975    -0.24030
H1476       H  0.58769979  0.32878553  0.52460025     0.14950
H1477       H  0.98515275  0.21817303  0.52159163     0.14970
C1478       C  0.96955876  0.26371647  0.51282828    -0.23980
H1479       H  0.60582338  0.30003374  0.45582083     0.05190
H1480       H  0.59803318  0.26074422  0.97280565     0.08410
H1481       H  0.62007455  0.29595574  0.51586997     0.08410
H1482       H  0.96500864  0.27289300  0.97818395     0.08400
H1483       H  0.96400237  0.27501055  0.54379156     0.08400
H1484       H  0.95062165  0.23636507  0.01424875     0.05170
C1485       C  0.56800184  0.40121300  0.52492122    -0.20630
C1486       C  0.56572068  0.37161215  0.50625699    -0.07200
C1487       C  0.59333571  0.37701594  0.47749199     0.13670
C1488       C  0.62424078  0.40581077  0.48630677    -0.20680
C1489       C  0.62786548  0.43493816  0.50815929    -0.07200
C1490       C  0.59782626  0.43303228  0.52280293     0.13660
C1491       C  0.59591412  0.46368377  0.53455857    -0.24030
H1492       H  0.54595972  0.39989885  0.53956064     0.14950
H1493       H  0.64522587  0.40491224  0.97372137     0.14970
C1494       C  0.59248215  0.35497287  0.93557662    -0.23980
H1495       H  0.56967654  0.45743474  0.53554843     0.05190
H1496       H  0.60879173  0.48320828  0.50539013     0.08410
H1497       H  0.60665692  0.47401238  0.57161157     0.08410
H1498       H  0.56893157  0.33067339  0.93156194     0.08400
H1499       H  0.61279237  0.34983620  0.44076652     0.08400
H1500       H  0.59721188  0.36887812  0.89988679     0.05170
C1501       C  0.70380014  0.45463034  0.55639361    -0.20630
C1502       C  0.69162007  0.45900316  0.51040210    -0.07200
C1503       C  0.70625147  0.45430782  0.96672953     0.13670
C1504       C  0.73624724  0.45485770  0.97070919    -0.20680
C1505       C  0.75150389  0.45638101  0.51671086    -0.07200
C1506       C  0.73226359  0.45204116  0.56008516     0.13660
C1507       C  0.73792779  0.94025789  0.60962528    -0.24030
H1508       H  0.69041124  0.95183945  0.59033261     0.14950
H1509       H  0.74725303  0.45251960  0.93679905     0.14970
C1510       C  0.69007376  0.44427556  0.91580697    -0.23980
H1511       H  0.71514068  0.91618078  0.62014918     0.05190
H1512       H  0.74193034  0.95825662  0.63913553     0.08410
H1513       H  0.75846246  0.43527179  0.60920748     0.08410
H1514       H  0.66711399  0.44486075  0.91122651     0.08400
H1515       H  0.68330145  0.41798585  0.90832904     0.08400
H1516       H  0.70803027  0.45958903  0.88660742     0.05170
C1517       C  0.73315914  0.30178958  0.48454164    -0.20630
C1518       C  0.76160086  0.30398572  0.50725972    -0.07200
C1519       C  0.75753926  0.27201978  0.51843711     0.13670
C1520       C  0.72545964  0.24336088  0.52342194    -0.20680
C1521       C  0.69576974  0.24268714  0.51131270    -0.07200
C1522       C  0.70069877  0.27230122  0.48672690     0.13660
C1523       C  0.67292691  0.27349827  0.46047978    -0.24030
H1524       H  0.73622654  0.32345928  0.46455120     0.14950
H1525       H  0.72382368  0.21995712  0.53300139     0.14970
C1526       C  0.78587061  0.26557608  0.51729684    -0.23980
H1527       H  0.68242228  0.29679531  0.43793592     0.05190
H1528       H  0.65577020  0.27377596  0.48799264     0.08410
H1529       H  0.65933244  0.25191089  0.93476691     0.08410
H1530       H  0.80458817  0.27922872  0.54575746     0.08400
H1531       H  0.79827873  0.27298806  0.98111365     0.08400
H1532       H  0.77734957  0.23857631  0.52254318     0.05170
C1533       C  0.76604406  0.36928021  0.53000184    -0.20630
C1534       C  0.79536834  0.37131819  0.51429680    -0.07200
C1535       C  0.82356107  0.40451827  0.00758689     0.13670
C1536       C  0.81980534  0.43264195  0.01208246    -0.20680
C1537       C  0.78832187  0.42931998  0.51704817    -0.07200
C1538       C  0.76030959  0.39557783  0.52238828     0.13660
C1539       C  0.72395942  0.38407863  0.51490187    -0.24030
H1540       H  0.74603890  0.34606628  0.54543400     0.14950
H1541       H  0.84166031  0.45769698  0.00899947     0.14970
C1542       C  0.85802497  0.41131035  0.99688804    -0.23980
H1543       H  0.70786811  0.35618276  0.51313827     0.05190
H1544       H  0.72029731  0.39292993  0.47850796     0.08410
H1545       H  0.71378231  0.39116024  0.54584950     0.08410
H1546       H  0.85888518  0.40197449  0.95939795     0.08400
H1547       H  0.86565680  0.39948873  0.52565737     0.08400
H1548       H  0.87696463  0.43867754  0.99698295     0.05170
In1549     In  0.83049052  0.52756650  0.13973917     1.36870
C1550       C  0.89040937  0.58011051  0.12244459     0.77250
O1551       O  0.84061588  0.54875649  0.21536139    -0.61190
O1552       O  0.82794755  0.49780033  0.21003911    -0.52100
C1553       C  0.77777728  0.53313736  0.14493124     0.69920
O1554       O  0.80325230  0.55388322  0.12068625    -0.46960
C1555       C  0.80611532  0.48535714  0.06154988     0.74620
O1556       O  0.86394648  0.58013448  0.11622062    -0.58820
O1557       O  0.81965325  0.47920130  0.09779034    -0.48910
O1558       O  0.88655983  0.55174293  0.13262789    -0.55250
C1559       C  0.83484464  0.52253087  0.23804404     0.84800
O1560       O  0.78036917  0.51133972  0.16908279    -0.57140
O1561       O  0.80764611  0.51296821  0.06549500    -0.60440
In1562     In  0.97467578  0.67144354  0.14203142     1.36870
C1563       C  0.92225980  0.61195161  0.12378634     0.77250
O1564       O  0.98531386  0.66765626  0.06285176    -0.61190
O1565       O  0.02629153  0.69868311  0.10869101    -0.52100
C1566       C  0.97172004  0.72662171  0.13963724     0.69920
O1567       O  0.94710658  0.69838964  0.12735129    -0.46960
C1568       C  0.97770155  0.66554608  0.23989553     0.74620
O1569       O  0.92333255  0.63918586  0.11515563    -0.58820
O1570       O  0.99816840  0.66333073  0.21204829    -0.48910
O1571       O  0.94930051  0.61489514  0.13861339    -0.55250
C1572       C  0.01572149  0.69014525  0.06470707     0.84800
O1573       O  0.99739618  0.72643167  0.15254982    -0.57140
O1574       O  0.95657197  0.66959549  0.21730956    -0.60440
In1575     In  0.97377115  0.67103310  0.39204508     1.36870
C1576       C  0.92079729  0.61098312  0.40899617     0.77250
O1577       O  0.95579402  0.66861410  0.31624663    -0.61190
O1578       O  0.99789115  0.66317983  0.32317473    -0.52100
C1579       C  0.96958874  0.72536470  0.38906602     0.69920
O1580       O  0.94567058  0.69761896  0.40462158    -0.46960
C1581       C  0.01542547  0.69129367  0.47034457     0.74620
O1582       O  0.92206641  0.63820135  0.41849201    -0.58820
O1583       O  0.02559199  0.70218057  0.42689889    -0.48910
O1584       O  0.94791672  0.61420638  0.39435658    -0.55250
C1585       C  0.97742330  0.66522188  0.29452076     0.84800
O1586       O  0.99516716  0.72511173  0.37646950    -0.57140
O1587       O  0.98578596  0.66684796  0.47109843    -0.60440
In1588     In  0.82846746  0.52605842  0.39094271     1.36870
C1589       C  0.88875452  0.57888884  0.40939369     0.77250
O1590       O  0.80918345  0.51362762  0.46756452    -0.61190
O1591       O  0.81633501  0.47722473  0.43330672    -0.52100
C1592       C  0.77553177  0.53136516  0.38074559     0.69920
O1593       O  0.80224916  0.55416522  0.40025574    -0.46960
C1594       C  0.83423228  0.52215171  0.29288351     0.74620
O1595       O  0.86216180  0.57843727  0.41681008    -0.58820
O1596       O  0.82803459  0.49747872  0.32085655    -0.48910
O1597       O  0.88486640  0.55080178  0.39735148    -0.55250
C1598       C  0.80575082  0.48503884  0.47118180     0.84800
O1599       O  0.77597941  0.50596667  0.36563344    -0.57140
O1600       O  0.83847397  0.54768715  0.31549013    -0.60440
C1601       C  0.79662844  0.83854214  0.01103194    -0.02810
C1602       C  0.78752964  0.96249009  0.01688990    -0.02810
C1603       C  0.53212982  0.83743882  0.01036791    -0.02810
C1604       C  0.66308719  0.96736232  0.00994311    -0.02810
C1605       C  0.66272951  0.70675231  0.01179323    -0.02810
C1606       C  0.53603979  0.70872351  0.01794201    -0.02810
In1607     In  0.97400411  0.81583513  0.13709710     1.36870
C1608       C  0.97133522  0.75770400  0.13907801     0.77250
O1609       O  0.98528167  0.83313333  0.05799360    -0.61190
O1610       O  0.02475797  0.83707906  0.10113736    -0.52100
C1611       C  0.92192468  0.82166879  0.12067722     0.69920
O1612       O  0.92206752  0.79522961  0.11034557    -0.46960
C1613       C  0.97751126  0.82524700  0.23386232     0.74620
O1614       O  0.94590031  0.75921775  0.12853687    -0.58820
O1615       O  0.99850874  0.84886486  0.20596124    -0.48910
O1616       O  0.99725142  0.78543825  0.14887758    -0.55250
C1617       C  0.01388806  0.83701228  0.05802235     0.84800
O1618       O  0.94959577  0.84642382  0.13526985    -0.57140
O1619       O  0.95585616  0.79920711  0.21170878    -0.60440
In1620     In  0.83329358  0.81700989  0.13821558     1.36870
C1621       C  0.77728857  0.75765526  0.13940310     0.77250
O1622       O  0.83492268  0.80188199  0.21374283    -0.61190
O1623       O  0.84282663  0.85111811  0.20582953    -0.52100
C1624       C  0.89081798  0.82192227  0.12099562     0.69920
O1625       O  0.86308999  0.79573470  0.11089230    -0.46960
C1626       C  0.81396835  0.83775002  0.05908807     0.74620
O1627       O  0.80476359  0.76036119  0.12900315    -0.58820
O1628       O  0.80102473  0.83407964  0.10136705    -0.48910
O1629       O  0.77894260  0.78476224  0.15003697    -0.55250
C1630       C  0.83974786  0.82804043  0.23481269     0.84800
O1631       O  0.88926882  0.84688370  0.13593175    -0.57140
O1632       O  0.84070337  0.83759155  0.06022398    -0.60440
In1633     In  0.68907201  0.52922610  0.13620135     1.36870
C1634       C  0.74667938  0.53266379  0.14273371     0.77250
O1635       O  0.70373945  0.55024695  0.21114469    -0.61190
O1636       O  0.65796334  0.50302462  0.20568548    -0.52100
C1637       C  0.68136213  0.58076718  0.12094914     0.69920
O1638       O  0.70838570  0.58188990  0.11366582    -0.46960
C1639       C  0.66788057  0.48893333  0.05632587     0.74620
O1640       O  0.74398876  0.55548360  0.12193357    -0.58820
O1641       O  0.65809105  0.47740253  0.09984411    -0.48910
O1642       O  0.72010755  0.50840621  0.16004960    -0.55250
C1643       C  0.67940945  0.52636221  0.23356495     0.84800
O1644       O  0.65675470  0.55201346  0.13215071    -0.57140
O1645       O  0.68489210  0.52060654  0.05475789    -0.60440
In1646     In  0.68606969  0.67013971  0.13765437     1.36870
C1647       C  0.74534085  0.72605013  0.13833209     0.77250
O1648       O  0.66824175  0.66408417  0.05880487    -0.61190
O1649       O  0.66453744  0.69929598  0.10262003    -0.52100
C1650       C  0.68063041  0.61182328  0.12145952     0.69920
O1651       O  0.70662562  0.63975859  0.11176654    -0.46960
C1652       C  0.67690768  0.66438757  0.23528221     0.74620
O1653       O  0.74149384  0.69859392  0.12331223    -0.58820
O1654       O  0.65375671  0.66129967  0.20696890    -0.48910
O1655       O  0.71913296  0.72471779  0.15194594    -0.55250
C1656       C  0.66367202  0.68843727  0.05932672     0.84800
O1657       O  0.65583776  0.61337114  0.13596938    -0.57140
O1658       O  0.70228495  0.66869456  0.21318891    -0.60440
In1659     In  0.97208053  0.81446043  0.38486827     1.36870
C1660       C  0.96886476  0.75617561  0.38596995     0.77250
O1661       O  0.95465333  0.79879484  0.30948692    -0.61190
O1662       O  0.99766259  0.84806540  0.31690621    -0.52100
C1663       C  0.92154575  0.82193029  0.40167680     0.69920
O1664       O  0.92078955  0.79487054  0.41107646    -0.46960
C1665       C  0.01228360  0.83533909  0.46356000     0.74620
O1666       O  0.94341761  0.75789258  0.39489967    -0.58820
O1667       O  0.02237944  0.83570241  0.42009238    -0.48910
O1668       O  0.99476379  0.78362969  0.37508021    -0.55250
C1669       C  0.97695512  0.82492723  0.28817982     0.84800
O1670       O  0.94933651  0.84640631  0.38714125    -0.57140
O1671       O  0.98343780  0.83080725  0.46450210    -0.60440
In1672     In  0.83392872  0.81839627  0.38603045     1.36870
C1673       C  0.77816124  0.75965821  0.38547907     0.77250
O1674       O  0.83896718  0.83375023  0.46551589    -0.61190
O1675       O  0.80526968  0.83985712  0.42100259    -0.52100
C1676       C  0.89106706  0.82300538  0.40235259     0.69920
O1677       O  0.86341878  0.79693681  0.41269514    -0.46960
C1678       C  0.83973265  0.82825181  0.28915778     0.74620
O1679       O  0.80561996  0.76224043  0.39580062    -0.58820
O1680       O  0.84373162  0.85194186  0.31727822    -0.48910
O1681       O  0.77961224  0.78671070  0.37466658    -0.55250
C1682       C  0.81506019  0.83869999  0.46442689     0.84800
O1683       O  0.88980450  0.84834194  0.38799535    -0.57140
O1684       O  0.83411759  0.80195874  0.31114427    -0.60440
In1685     In  0.68884510  0.53120717  0.38586148     1.36870
C1686       C  0.74563556  0.53331844  0.37865607     0.77250
O1687       O  0.69699085  0.51698514  0.46032580    -0.61190
O1688       O  0.64925199  0.48455033  0.42915390    -0.52100
C1689       C  0.68258247  0.58311231  0.40451916     0.69920
O1690       O  0.70961420  0.58389638  0.40883304    -0.46960
C1691       C  0.67898410  0.52684934  0.28820203     0.74620
O1692       O  0.74349800  0.55592446  0.40096005    -0.58820
O1693       O  0.65967788  0.50230829  0.31620290    -0.48910
O1694       O  0.71937318  0.51125660  0.35719009    -0.55250
C1695       C  0.66923882  0.49024652  0.46503829     0.84800
O1696       O  0.65738539  0.55455445  0.39490310    -0.57140
O1697       O  0.70094834  0.55272111  0.31065427    -0.60440
In1698     In  0.68816719  0.67233604  0.38711691     1.36870
C1699       C  0.74655470  0.72810248  0.38645352     0.77250
O1700       O  0.70337103  0.67009407  0.31164035    -0.61190
O1701       O  0.65475420  0.66236901  0.31836532    -0.52100
C1702       C  0.68233005  0.61427401  0.40459064     0.69920
O1703       O  0.70900568  0.64207612  0.41210625    -0.46960
C1704       C  0.66667343  0.69063615  0.46495768     0.74620
O1705       O  0.74322875  0.70078314  0.40150384    -0.58820
O1706       O  0.66779796  0.70199740  0.42176034    -0.48910
O1707       O  0.72027232  0.72661085  0.37230542    -0.55250
C1708       C  0.67746160  0.66504661  0.28986337     0.84800
O1709       O  0.65718870  0.61596606  0.39202345    -0.57140
O1710       O  0.67208802  0.66685800  0.46597399    -0.60440
C1711       C  0.62529005  0.72531222  0.04944001    -0.20630
C1712       C  0.62910045  0.70569850  0.01328537    -0.07200
C1713       C  0.59982059  0.68251226  0.98606610     0.13670
C1714       C  0.57139105  0.68498156  0.98854582    -0.20680
C1715       C  0.56894022  0.70795702  0.01972599    -0.07200
C1716       C  0.59595967  0.72640377  0.05399711     0.13660
C1717       C  0.59614135  0.74818341  0.09567674    -0.24030
H1718       H  0.64606806  0.74087341  0.07403098     0.14950
H1719       H  0.55016461  0.66716327  0.46663836     0.14970
C1720       C  0.59578752  0.65249144  0.45789860    -0.23980
H1721       H  0.61900201  0.77358380  0.09370148     0.05190
H1722       H  0.59637527  0.73675797  0.13196732     0.08410
H1723       H  0.57486432  0.75189355  0.09527170     0.08410
H1724       H  0.60489169  0.63896654  0.98081543     0.08400
H1725       H  0.60847702  0.66023404  0.42142538     0.08400
H1726       H  0.56927167  0.63374985  0.44929720     0.05170
C1727       C  0.56469841  0.80527202  0.01894099    -0.20630
C1728       C  0.53404880  0.80429447  0.01451183    -0.07200
C1729       C  0.00485108  0.77107453  0.01523726     0.13670
C1730       C  0.50783180  0.74258950  0.01897833    -0.20680
C1731       C  0.53845103  0.74382649  0.01634066    -0.07200
C1732       C  0.56714505  0.77657223  0.01041693     0.13660
C1733       C  0.59947564  0.78326128  0.98847842    -0.24030
H1734       H  0.58770245  0.82878141  0.02460375     0.14950
H1735       H  0.98515397  0.71817059  0.02159008     0.14970
C1736       C  0.96956162  0.76371536  0.01282797    -0.23980
H1737       H  0.60582355  0.80002837  0.95581866     0.05190
H1738       H  0.59803261  0.76074908  0.47280645     0.08410
H1739       H  0.62007623  0.79595170  0.01586748     0.08410
H1740       H  0.96500516  0.77289282  0.47818344     0.08400
H1741       H  0.96400552  0.77500908  0.04379203     0.08400
H1742       H  0.95061932  0.73636607  0.51425053     0.05170
C1743       C  0.56800394  0.90121196  0.02491520    -0.20630
C1744       C  0.56572449  0.87161033  0.00625811    -0.07200
C1745       C  0.59334130  0.87701345  0.97749888     0.13670
C1746       C  0.62424588  0.90580774  0.98631764    -0.20680
C1747       C  0.62786875  0.93493673  0.00816142    -0.07200
C1748       C  0.59782831  0.93303146  0.02279638     0.13660
C1749       C  0.59591527  0.96368359  0.03454305    -0.24030
H1750       H  0.54596058  0.89989796  0.03954903     0.14950
H1751       H  0.64521969  0.90491627  0.47370402     0.14970
C1752       C  0.59247482  0.85497401  0.43557024    -0.23980
H1753       H  0.56967740  0.95743361  0.03553382     0.05190
H1754       H  0.60879081  0.98320462  0.00536952     0.08410
H1755       H  0.60665983  0.97401738  0.07159316     0.08410
H1756       H  0.56892491  0.83067345  0.43155962     0.08400
H1757       H  0.61279860  0.84983371  0.94077571     0.08400
H1758       H  0.59720134  0.86887746  0.39987935     0.05170
C1759       C  0.70380452  0.95463271  0.05639469    -0.20630
C1760       C  0.69162377  0.95900433  0.01040304    -0.07200
C1761       C  0.70624953  0.95430910  0.46672845     0.13670
C1762       C  0.73624523  0.95485896  0.47070893    -0.20680
C1763       C  0.75150630  0.95638001  0.01671094    -0.07200
C1764       C  0.73226668  0.95204132  0.06008559     0.13660
C1765       C  0.73792977  0.44025639  0.10962500    -0.24030
H1766       H  0.69041663  0.45184396  0.09033411     0.14950
H1767       H  0.74725180  0.95252192  0.43679888     0.14970
C1768       C  0.69007482  0.94428084  0.41580348    -0.23980
H1769       H  0.71514195  0.41617955  0.12014772     0.05190
H1770       H  0.74193273  0.45825451  0.13913633     0.08410
H1771       H  0.75846372  0.93526919  0.10920667     0.08410
H1772       H  0.66711569  0.94486698  0.41122087     0.08400
H1773       H  0.68330257  0.91799158  0.40832166     0.08400
H1774       H  0.70803335  0.95959634  0.38660737     0.05170
C1775       C  0.73316085  0.80178745  0.98454119    -0.20630
C1776       C  0.76160260  0.80398367  0.00725927    -0.07200
C1777       C  0.75754101  0.77201776  0.01843692     0.13670
C1778       C  0.72546138  0.74335886  0.02342185    -0.20680
C1779       C  0.69577145  0.74268508  0.01131257    -0.07200
C1780       C  0.70070046  0.77229911  0.98672666     0.13660
C1781       C  0.67292852  0.77349608  0.96047976    -0.24030
H1782       H  0.73622822  0.82345709  0.96455058     0.14950
H1783       H  0.72382543  0.71995514  0.03300148     0.14970
C1784       C  0.78587238  0.76557407  0.01729700    -0.23980
H1785       H  0.68242377  0.79679318  0.93793609     0.05190
H1786       H  0.65577181  0.77377356  0.98799280     0.08410
H1787       H  0.65933081  0.75191304  0.43476697     0.08410
H1788       H  0.80458984  0.77922672  0.04575779     0.08400
H1789       H  0.79827685  0.77299013  0.48111345     0.08400
H1790       H  0.77735133  0.73857431  0.02254345     0.05170
C1791       C  0.76604574  0.86927841  0.03000067    -0.20630
C1792       C  0.79537007  0.87131626  0.01429601    -0.07200
C1793       C  0.82355927  0.90452021  0.50758755     0.13670
C1794       C  0.81980339  0.93264378  0.51208291    -0.20680
C1795       C  0.78832390  0.92931835  0.01704778    -0.07200
C1796       C  0.76031151  0.89557625  0.02238740     0.13660
C1797       C  0.72396148  0.88407749  0.01490073    -0.24030
H1798       H  0.74604043  0.84606450  0.04543259     0.14950
H1799       H  0.84165829  0.95769885  0.50899982     0.14970
C1800       C  0.85802323  0.91131241  0.49688889    -0.23980
H1801       H  0.70786983  0.85618163  0.01313788     0.05190
H1802       H  0.72029966  0.89292859  0.97850642     0.08410
H1803       H  0.71378460  0.89115989  0.04584771     0.08410
H1804       H  0.85888356  0.90197655  0.45939886     0.08400
H1805       H  0.86565855  0.89948663  0.02565642     0.08400
H1806       H  0.87696282  0.93867961  0.49698381     0.05170
In1807     In  0.83048932  0.52756888  0.63973768     1.36870
C1808       C  0.89040813  0.58011319  0.62244311     0.77250
O1809       O  0.84061333  0.54875698  0.71536115    -0.61190
O1810       O  0.82794737  0.49780175  0.71003593    -0.52100
C1811       C  0.77777627  0.53314008  0.64492806     0.69920
O1812       O  0.80325137  0.55388570  0.62068302    -0.46960
C1813       C  0.80611316  0.48535884  0.56154950     0.74620
O1814       O  0.86394524  0.58013737  0.61622099    -0.58820
O1815       O  0.81965175  0.47920349  0.59778948    -0.48910
O1816       O  0.88655858  0.55174539  0.63262455    -0.55250
C1817       C  0.83484351  0.52253135  0.73804226     0.84800
O1818       O  0.78036814  0.51134277  0.66908072    -0.57140
O1819       O  0.80764384  0.51296985  0.56549438    -0.60440
In1820     In  0.97467502  0.67144560  0.64203097     1.36870
C1821       C  0.92225867  0.61195417  0.62378494     0.77250
O1822       O  0.98531437  0.66765737  0.56285204    -0.61190
O1823       O  0.02629069  0.69868838  0.60869082    -0.52100
C1824       C  0.97171810  0.72662310  0.63963722     0.69920
O1825       O  0.94710498  0.69839093  0.62735081    -0.46960
C1826       C  0.97770172  0.66554646  0.73989466     0.74620
O1827       O  0.92333156  0.63918864  0.61515552    -0.58820
O1828       O  0.99816808  0.66333127  0.71204608    -0.48910
O1829       O  0.94929940  0.61489729  0.63861091    -0.55250
C1830       C  0.01572120  0.69014876  0.56470710     0.84800
O1831       O  0.99739431  0.72643341  0.65255041    -0.57140
O1832       O  0.95657231  0.66959685  0.71731016    -0.60440
In1833     In  0.97377237  0.67103047  0.89204470     1.36870
C1834       C  0.92079834  0.61098028  0.90899447     0.77250
O1835       O  0.95579453  0.66861254  0.81624713    -0.61190
O1836       O  0.99789184  0.66317832  0.82317266    -0.52100
C1837       C  0.96959113  0.72536278  0.88906664     0.69920
O1838       O  0.94567271  0.69761718  0.90462213    -0.46960
C1839       C  0.01542642  0.69128998  0.97034451     0.74620
O1840       O  0.92206764  0.63819845  0.91849157    -0.58820
O1841       O  0.02559330  0.70217663  0.92689884    -0.48910
O1842       O  0.94791769  0.61420363  0.89435416    -0.55250
C1843       C  0.97742377  0.66522093  0.79451989     0.84800
O1844       O  0.99516933  0.72510938  0.87647012    -0.57140
O1845       O  0.98578666  0.66684473  0.97109816    -0.60440
In1846     In  0.82846813  0.52605580  0.89094156     1.36870
C1847       C  0.88875547  0.57888603  0.90939174     0.77250
O1848       O  0.80918665  0.51362645  0.96756485    -0.61190
O1849       O  0.81633560  0.47722219  0.93330553    -0.52100
C1850       C  0.77553116  0.53136038  0.88074550     0.69920
O1851       O  0.80224891  0.55416162  0.90025328    -0.46960
C1852       C  0.83423186  0.52215111  0.79288177     0.74620
O1853       O  0.86216284  0.57843447  0.91680934    -0.58820
O1854       O  0.82803582  0.49747798  0.82085345    -0.48910
O1855       O  0.88486715  0.55079904  0.89734842    -0.55250
C1856       C  0.80575295  0.48503717  0.97118158     0.84800
O1857       O  0.77597885  0.50596143  0.86563572    -0.57140
O1858       O  0.83847269  0.54768569  0.81548996    -0.60440
C1859       C  0.79662669  0.83854416  0.51103240    -0.02810
C1860       C  0.78752740  0.96249158  0.51688994    -0.02810
C1861       C  0.53212601  0.83744064  0.51036731    -0.02810
C1862       C  0.66308458  0.96736288  0.50994217    -0.02810
C1863       C  0.66272780  0.70675441  0.51179337    -0.02810
C1864       C  0.53603904  0.70872727  0.51794186    -0.02810
In1865     In  0.97400166  0.81583625  0.63709779     1.36870
C1866       C  0.97133300  0.75770523  0.63907777     0.77250
O1867       O  0.98527803  0.83313451  0.55799422    -0.61190
O1868       O  0.02475490  0.83708043  0.60113676    -0.52100
C1869       C  0.92192247  0.82167028  0.62067860     0.69920
O1870       O  0.92206511  0.79523101  0.61034687    -0.46960
C1871       C  0.97751107  0.82524754  0.73386315     0.74620
O1872       O  0.94589786  0.75921878  0.62853753    -0.58820
O1873       O  0.99850814  0.84886544  0.70596174    -0.48910
O1874       O  0.99724928  0.78543960  0.64887638    -0.55250
C1875       C  0.01388447  0.83701363  0.55802215     0.84800
O1876       O  0.94959353  0.84642511  0.63527184    -0.57140
O1877       O  0.95585462  0.79920831  0.71170980    -0.60440
In1878     In  0.83329177  0.81701159  0.63821582     1.36870
C1879       C  0.77728666  0.75765728  0.63940307     0.77250
O1880       O  0.83492111  0.80188206  0.71374184    -0.61190
O1881       O  0.84282590  0.85111872  0.70583164    -0.52100
C1882       C  0.89081598  0.82192404  0.62099618     0.69920
O1883       O  0.86308806  0.79573661  0.61089203    -0.46960
C1884       C  0.81396670  0.83775200  0.55908845     0.74620
O1885       O  0.80476156  0.76036318  0.62900222    -0.58820
O1886       O  0.80102335  0.83408199  0.60136762    -0.48910
O1887       O  0.77894083  0.78476419  0.65003808    -0.55250
C1888       C  0.83974742  0.82804044  0.73481329     0.84800
O1889       O  0.88926688  0.84688549  0.63593239    -0.57140
O1890       O  0.84070156  0.83759322  0.56022411    -0.60440
In1891     In  0.68907032  0.52922755  0.63619959     1.36870
C1892       C  0.74667824  0.53266616  0.64272963     0.77250
O1893       O  0.70373914  0.55024648  0.71114358    -0.61190
O1894       O  0.65796110  0.50302602  0.70568340    -0.52100
C1895       C  0.68136073  0.58076892  0.62094944     0.69920
O1896       O  0.70838407  0.58189143  0.61366438    -0.46960
C1897       C  0.66787806  0.48893375  0.55632533     0.74620
O1898       O  0.74398701  0.55548538  0.62192853    -0.58820
O1899       O  0.65809447  0.47740299  0.59984512    -0.48910
O1900       O  0.72010677  0.50840871  0.66004639    -0.55250
C1901       C  0.67940861  0.52636208  0.73356346     0.84800
O1902       O  0.65675347  0.55201540  0.63215250    -0.57140
O1903       O  0.68488221  0.52060719  0.55475539    -0.60440
In1904     In  0.68606826  0.67014148  0.63765411     1.36870
C1905       C  0.74533901  0.72605215  0.63833188     0.77250
O1906       O  0.66824025  0.66408625  0.55880469    -0.61190
O1907       O  0.66453544  0.69929755  0.60262033    -0.52100
C1908       C  0.68062901  0.61182505  0.62145959     0.69920
O1909       O  0.70662406  0.63976032  0.61176577    -0.46960
C1910       C  0.67690776  0.66438839  0.73528216     0.74620
O1911       O  0.74149208  0.69859625  0.62331059    -0.58820
O1912       O  0.65375622  0.66130053  0.70697013    -0.48910
O1913       O  0.71913117  0.72471943  0.65194708    -0.55250
C1914       C  0.66367026  0.68843918  0.55932683     0.84800
O1915       O  0.65583643  0.61337295  0.63596976    -0.57140
O1916       O  0.70228497  0.66869630  0.71318753    -0.60440
In1917     In  0.97208423  0.81445920  0.88486897     1.36870
C1918       C  0.96886759  0.75617395  0.88597038     0.77250
O1919       O  0.95465616  0.79879398  0.80948798    -0.61190
O1920       O  0.99766501  0.84806483  0.81690685    -0.52100
C1921       C  0.92154895  0.82192836  0.90167818     0.69920
O1922       O  0.92079310  0.79486876  0.91107782    -0.46960
C1923       C  0.01228802  0.83533764  0.96356010     0.74620
O1924       O  0.94342087  0.75789144  0.89490130    -0.58820
O1925       O  0.02238326  0.83569871  0.92009284    -0.48910
O1926       O  0.99476658  0.78362771  0.87507914    -0.55250
C1927       C  0.97695692  0.82492690  0.78818071     0.84800
O1928       O  0.94933971  0.84640463  0.88714313    -0.57140
O1929       O  0.98344319  0.83080833  0.96450158    -0.60440
In1930     In  0.83393136  0.81839407  0.88603092     1.36870
C1931       C  0.77816390  0.75965574  0.88547947     0.77250
O1932       O  0.83896931  0.83374825  0.96551625    -0.61190
O1933       O  0.80527172  0.83985454  0.92100234    -0.52100
C1934       C  0.89106998  0.82300310  0.90235326     0.69920
O1935       O  0.86342162  0.79693438  0.91269494    -0.46960
C1936       C  0.83973390  0.82825116  0.78915843     0.74620
O1937       O  0.80562266  0.76223795  0.89580069    -0.58820
O1938       O  0.84373347  0.85194077  0.81728034    -0.48910
O1939       O  0.77961493  0.78670827  0.87466744    -0.55250
C1940       C  0.81506216  0.83869779  0.96442679     0.84800
O1941       O  0.88980731  0.84833964  0.88799625    -0.57140
O1942       O  0.83411968  0.80195791  0.81114347    -0.60440
In1943     In  0.68884537  0.53120416  0.88586007     1.36870
C1944       C  0.74563484  0.53331348  0.87865549     0.77250
O1945       O  0.69699138  0.51698484  0.96032597    -0.61190
O1946       O  0.64925341  0.48454720  0.92915338    -0.52100
C1947       C  0.68258347  0.58310970  0.90451765     0.69920
O1948       O  0.70961508  0.58389348  0.90883108    -0.46960
C1949       C  0.67898423  0.52684796  0.78820067     0.74620
O1950       O  0.74349839  0.55592139  0.90095556    -0.58820
O1951       O  0.65967658  0.50230726  0.81620106    -0.48910
O1952       O  0.71937164  0.51125036  0.85719261    -0.55250
C1953       C  0.66924021  0.49024523  0.96503860     0.84800
O1954       O  0.65738611  0.55455190  0.89490218    -0.57140
O1955       O  0.70095044  0.55271828  0.81065332    -0.60440
In1956     In  0.68816909  0.67233411  0.88711676     1.36870
C1957       C  0.74655720  0.72810011  0.88645379     0.77250
O1958       O  0.70337192  0.67009309  0.81163904    -0.61190
O1959       O  0.65475526  0.66236806  0.81836658    -0.52100
C1960       C  0.68233146  0.61427162  0.90458921     0.69920
O1961       O  0.70900730  0.64207357  0.91210450    -0.46960
C1962       C  0.66667535  0.69063411  0.96495769     0.74620
O1963       O  0.74323090  0.70078046  0.90150327    -0.58820
O1964       O  0.66779982  0.70199532  0.92176036    -0.48910
O1965       O  0.72027493  0.72660895  0.87230643    -0.55250
C1966       C  0.67746231  0.66504620  0.78986334     0.84800
O1967       O  0.65719024  0.61596404  0.89202264    -0.57140
O1968       O  0.67209025  0.66685618  0.96597408    -0.60440
C1969       C  0.62528883  0.72531485  0.54944021    -0.20630
C1970       C  0.62909899  0.70570100  0.51328554    -0.07200
C1971       C  0.59981927  0.68251545  0.48606551     0.13670
C1972       C  0.57139019  0.68498553  0.48854469    -0.20680
C1973       C  0.56893955  0.70796097  0.51972520    -0.07200
C1974       C  0.59595885  0.72640716  0.55399678     0.13660
C1975       C  0.59614073  0.74818682  0.59567653    -0.24030
H1976       H  0.64606677  0.74087561  0.57403155     0.14950
H1977       H  0.55016535  0.66715891  0.96664003     0.14970
C1978       C  0.59578936  0.65248849  0.95789913    -0.23980
H1979       H  0.61900195  0.77358683  0.59370217     0.05190
H1980       H  0.59637362  0.73676077  0.63196705     0.08410
H1981       H  0.57486433  0.75189795  0.59527073     0.08410
H1982       H  0.60488955  0.63896923  0.48081490     0.08400
H1983       H  0.60847892  0.66023130  0.92142597     0.08400
H1984       H  0.56927361  0.63374662  0.94929760     0.05170
C1985       C  0.56469600  0.80527550  0.51893952    -0.20630
C1986       C  0.53404583  0.80429687  0.51451113    -0.07200
C1987       C  0.00484860  0.77107664  0.51523756     0.13670
C1988       C  0.50783021  0.74259223  0.51897917    -0.20680
C1989       C  0.53844979  0.74383000  0.51634091    -0.07200
C1990       C  0.56714343  0.77657605  0.51041679     0.13660
C1991       C  0.59947463  0.78326579  0.48847975    -0.24030
H1992       H  0.58769980  0.82878553  0.52460026     0.14950
H1993       H  0.98515275  0.71817304  0.52159168     0.14970
C1994       C  0.96955876  0.76371647  0.51282829    -0.23980
H1995       H  0.60582339  0.80003374  0.45582083     0.05190
H1996       H  0.59803318  0.76074423  0.97280566     0.08410
H1997       H  0.62007455  0.79595574  0.51586997     0.08410
H1998       H  0.96500864  0.77289301  0.97818395     0.08400
H1999       H  0.96400237  0.77501056  0.54379156     0.08400
H2000       H  0.95062165  0.73636507  0.01424876     0.05170
C2001       C  0.56800184  0.90121301  0.52492119    -0.20630
C2002       C  0.56572068  0.87161216  0.50625699    -0.07200
C2003       C  0.59333572  0.87701594  0.47749201     0.13670
C2004       C  0.62424079  0.90581077  0.48630681    -0.20680
C2005       C  0.62786548  0.93493817  0.50815930    -0.07200
C2006       C  0.59782626  0.93303229  0.52280291     0.13660
C2007       C  0.59591412  0.96368379  0.53455851    -0.24030
H2008       H  0.54595972  0.89989886  0.53956060     0.14950
H2009       H  0.64522586  0.90491225  0.97372134     0.14970
C2010       C  0.59248214  0.85497287  0.93557661    -0.23980
H2011       H  0.56967653  0.95743475  0.53554837     0.05190
H2012       H  0.60879172  0.98320828  0.50539005     0.08410
H2013       H  0.60665692  0.97401241  0.57161150     0.08410
H2014       H  0.56893156  0.83067338  0.93156195     0.08400
H2015       H  0.61279238  0.84983621  0.44076655     0.08400
H2016       H  0.59721187  0.86887812  0.89988679     0.05170
C2017       C  0.70380014  0.95463036  0.55639361    -0.20630
C2018       C  0.69162008  0.95900318  0.51040210    -0.07200
C2019       C  0.70625147  0.95430783  0.96672953     0.13670
C2020       C  0.73624725  0.95485770  0.97070919    -0.20680
C2021       C  0.75150389  0.95638102  0.51671086    -0.07200
C2022       C  0.73226359  0.95204118  0.56008516     0.13660
C2023       C  0.73792779  0.44025789  0.60962529    -0.24030
H2024       H  0.69041123  0.45183942  0.59033261     0.14950
H2025       H  0.74725304  0.95251961  0.93679905     0.14970
C2026       C  0.69007376  0.94427557  0.91580697    -0.23980
H2027       H  0.71514068  0.41618077  0.62014920     0.05190
H2028       H  0.74193035  0.45825662  0.63913553     0.08410
H2029       H  0.75846245  0.93527179  0.60920748     0.08410
H2030       H  0.66711400  0.94486076  0.91122651     0.08400
H2031       H  0.68330146  0.91798586  0.90832904     0.08400
H2032       H  0.70803028  0.95958904  0.88660743     0.05170
C2033       C  0.73315914  0.80178958  0.48454163    -0.20630
C2034       C  0.76160086  0.80398572  0.50725971    -0.07200
C2035       C  0.75753926  0.77201979  0.51843710     0.13670
C2036       C  0.72545965  0.74336088  0.52342192    -0.20680
C2037       C  0.69576974  0.74268714  0.51131267    -0.07200
C2038       C  0.70069877  0.77230122  0.48672687     0.13660
C2039       C  0.67292691  0.77349827  0.46047975    -0.24030
H2040       H  0.73622654  0.82345928  0.46455118     0.14950
H2041       H  0.72382368  0.71995712  0.53300138     0.14970
C2042       C  0.78587061  0.76557608  0.51729684    -0.23980
H2043       H  0.68242229  0.79679531  0.43793589     0.05190
H2044       H  0.65577020  0.77377595  0.48799260     0.08410
H2045       H  0.65933245  0.75191090  0.93476690     0.08410
H2046       H  0.80458817  0.77922872  0.54575746     0.08400
H2047       H  0.79827874  0.77298807  0.98111366     0.08400
H2048       H  0.77734957  0.73857632  0.52254318     0.05170
C2049       C  0.76604405  0.86928022  0.53000182    -0.20630
C2050       C  0.79536833  0.87131819  0.51429679    -0.07200
C2051       C  0.82356108  0.90451827  0.00758689     0.13670
C2052       C  0.81980534  0.93264195  0.01208246    -0.20680
C2053       C  0.78832186  0.92931999  0.51704816    -0.07200
C2054       C  0.76030958  0.89557783  0.52238827     0.13660
C2055       C  0.72395941  0.88407863  0.51490185    -0.24030
H2056       H  0.74603889  0.84606628  0.54543398     0.14950
H2057       H  0.84166031  0.95769698  0.00899947     0.14970
C2058       C  0.85802497  0.91131036  0.99688804    -0.23980
H2059       H  0.70786811  0.85618277  0.51313825     0.05190
H2060       H  0.72029731  0.89292994  0.47850793     0.08410
H2061       H  0.71378230  0.89116025  0.54584947     0.08410
H2062       H  0.85888519  0.90197449  0.95939796     0.08400
H2063       H  0.86565680  0.89948874  0.52565738     0.08400
H2064       H  0.87696463  0.93867754  0.99698295     0.05170
loop_ 
_geom_bond_atom_site_label_1 
_geom_bond_atom_site_label_2 
_geom_bond_distance 
_geom_bond_site_symmetry_2 
_ccdc_geom_bond_type 
In1           O3   2.201       .  S
In1           O4   2.302   1_545  S
In1          O12   2.215       .  S
In1           O6   2.241       .  S
In1           O8   2.201       .  S
In1           O9   2.328   1_545  S
In1          O10   2.273       .  S
In1          O13   2.195       .  S
C2            O8   1.255       .  A
C2           O10   1.264       .  A
C2           C15   1.459       .  S
O3           C11   1.258       .  A
O4           C11   1.270   1_565  A
C5           O12   1.259       .  A
C5            O6   1.260       .  A
C5           C86   1.452       .  S
C7            O9   1.270       .  A
C7           O13   1.254   1_565  A
C7          C570   1.538       .  S
C11          C46   1.473       .  S
In14         O16   2.216       .  S
In14         O17   2.260       .  S
In14         O25   2.219       .  S
In14         O19   2.256       .  S
In14         O21   2.195       .  S
In14         O22   2.302       .  S
In14         O23   2.256       .  S
In14         O26   2.182       .  S
C15          O21   1.262       .  A
C15          O23   1.268       .  A
O16          C24   1.258       .  A
O17          C24   1.262       .  A
C18          O25   1.259       .  A
C18          O19   1.261       .  A
C18          C60   1.456       .  S
C20          O22   1.269       .  A
C20          O26   1.256       .  A
C20          C37   1.467       .  S
C24        C1090   1.543       .  S
In27         O29   2.180       .  S
In27         O30   2.303       .  S
In27         O38   2.208       .  S
In27         O32   2.259       .  S
In27         O34   2.211       .  S
In27         O35   2.285       .  S
In27         O36   2.264       .  S
In27         O39   2.227       .  S
C28          O34   1.264       .  A
C28          O36   1.269       .  A
C28          C41   1.468       .  S
O29          C37   1.255       .  A
O30          C37   1.270       .  A
C31          O38   1.257       .  A
C31          O32   1.262       .  A
C31         C112   1.454       .  S
C33          O35   1.263       .  A
C33          O39   1.259       .  A
C33        C1348   1.552       .  S
In40         O42   2.203       .  S
In40         O43   2.327   1_545  S
In40         O51   2.238       .  S
In40         O45   2.232       .  S
In40         O47   2.217       .  S
In40         O48   2.304   1_545  S
In40         O49   2.281       .  S
In40         O52   2.199       .  S
C41          O47   1.257       .  A
C41          O49   1.266       .  A
O42          C50   1.257   1_545  A
O43          C50   1.270       .  A
C44          O51   1.262       .  A
C44          O45   1.260       .  A
C44         C138   1.456       .  S
C46          O48   1.270   1_545  A
C46          O52   1.257       .  A
C50         C828   1.551       .  S
C53          C78   1.533       .  S
C53         C228   1.596       .  S
C53         C244   1.560       .  S
C53         C392   1.525   1_554  S
C54         C215   1.565       .  S
C54         C247   1.564       .  S
C54         C523   1.538       .  S
C54         C824   1.551   1_554  S
C55         C180   1.595       .  S
C55         C196   1.555       .  S
C55        C1101   1.539       .  S
C55        C1407   1.534   1_554  S
C56         C199   1.555       .  S
C56         C212   1.580       .  S
C56         C607   1.544       .  S
C56         C921   1.530   1_554  S
C57         C108   1.544       .  S
C57         C164   1.557       .  S
C57         C231   1.582       .  S
C57         C414   1.529   1_554  S
C58         C167   1.566       .  S
C58         C183   1.578       .  S
C58        C1056   1.543       .  S
C58        C1323   1.552   1_554  S
In59         O61   2.234       .  S
In59         O62   2.273       .  S
In59         O70   2.247       .  S
In59         O64   2.224       .  S
In59         O66   2.262       .  S
In59         O67   2.295       .  S
In59         O68   2.213       .  S
In59         O71   2.158       .  S
C60          O66   1.264       .  A
C60          O68   1.257       .  A
O61          C69   1.261       .  A
O62          C69   1.262       .  A
C63          O70   1.269       .  A
C63          O64   1.266       .  A
C63          C76   1.469       .  S
C65          O67   1.270       .  A
C65          O71   1.254       .  A
C65         C121   1.459       .  S
C69        C1087   1.539       .  S
In72         O74   2.157       .  S
In72         O75   2.301       .  S
In72         O83   2.248       .  S
In72         O77   2.224       .  S
In72         O79   2.265       .  S
In72         O80   2.268       .  S
In72         O81   2.212       .  S
In72         O84   2.251       .  S
C73          O79   1.264       .  A
C73          O81   1.257       .  A
C73          C99   1.455       .  S
O74          C82   1.254       .  A
O75          C82   1.269       .  A
C76          O83   1.269       .  A
C76          O77   1.266       .  A
C78          O80   1.260       .  A
C78          O84   1.261       .  A
C82         C130   1.459       .  S
In85         O87   2.187       .  S
In85         O88   2.293       .  S
In85         O96   2.263       .  S
In85         O90   2.207       .  S
In85         O92   2.242       .  S
In85         O93   2.289   1_545  S
In85         O94   2.221       .  S
In85         O97   2.215       .  S
C86          O92   1.261       .  A
C86          O94   1.258       .  A
O87          C95   1.258       .  A
O88          C95   1.271       .  A
C89          O96   1.267       .  A
C89          O90   1.261       .  A
C89         C102   1.464       .  S
C91          O93   1.268       .  A
C91          O97   1.259   1_565  A
C91         C572   1.544       .  S
C95         C143   1.468       .  S
In98        O100   2.237       .  S
In98        O101   2.271       .  S
In98        O109   2.256       .  S
In98        O103   2.205       .  S
In98        O105   2.259       .  S
In98        O106   2.306       .  S
In98        O107   2.215       .  S
In98        O110   2.176       .  S
C99         O105   1.262       .  A
C99         O107   1.258       .  A
O100        C108   1.259       .  A
O101        C108   1.262       .  A
C102        O109   1.269       .  A
C102        O103   1.263       .  A
C104        O106   1.270       .  A
C104        O110   1.255       .  A
C104        C160   1.466       .  S
In111       O113   2.162       .  S
In111       O114   2.293       .  S
In111       O122   2.240       .  S
In111       O116   2.206       .  S
In111       O118   2.263       .  S
In111       O119   2.239       .  S
In111       O120   2.206       .  S
In111       O123   2.240       .  S
C112        O118   1.265       .  A
C112        O120   1.257       .  A
O113        C121   1.256       .  A
O114        C121   1.269       .  A
C115        O122   1.268       .  A
C115        O116   1.265       .  A
C115        C128   1.460       .  S
C117        O119   1.260       .  A
C117        O123   1.260       .  A
C117       C1345   1.534       .  S
In124       O126   2.226       .  S
In124       O127   2.264       .  S
In124       O135   2.243       .  S
In124       O129   2.204       .  S
In124       O131   2.246       .  S
In124       O132   2.300       .  S
In124       O133   2.205       .  S
In124       O136   2.157       .  S
C125        O131   1.262       .  A
C125        O133   1.257       .  A
C125        C151   1.446       .  S
O126        C134   1.260       .  A
O127        C134   1.262       .  A
C128        O135   1.269       .  A
C128        O129   1.263       .  A
C130        O132   1.270       .  A
C130        O136   1.254       .  A
C134        C311   1.525       .  S
In137       O139   2.196       .  S
In137       O140   2.306   1_545  S
In137       O148   2.261       .  S
In137       O142   2.205       .  S
In137       O144   2.237       .  S
In137       O145   2.294       .  S
In137       O146   2.219       .  S
In137       O149   2.192       .  S
C138        O144   1.262       .  A
C138        O146   1.260       .  A
O139        C147   1.255   1_545  A
O140        C147   1.270       .  A
C141        O148   1.263       .  A
C141        O142   1.257       .  A
C141        C154   1.457       .  S
C143        O145   1.270       .  A
C143        O149   1.259       .  A
C147        C830   1.530       .  S
In150       O152   2.174       .  S
In150       O153   2.304       .  S
In150       O161   2.245       .  S
In150       O155   2.194       .  S
In150       O157   2.242       .  S
In150       O158   2.256       .  S
In150       O159   2.200       .  S
In150       O162   2.221       .  S
C151        O157   1.262       .  A
C151        O159   1.258       .  A
O152        C160   1.255       .  A
O153        C160   1.270       .  A
C154        O161   1.269       .  A
C154        O155   1.264       .  A
C156        O158   1.262       .  A
C156        O162   1.258       .  A
C156        C315   1.529       .  S
C163        C164   1.411       .  A
C163        C168   1.412       .  A
C163        H170   1.084       .  S
C164        C165   1.429   1_554  A
C165        C430   1.515       .  S
C165        C166   1.402       .  A
C166        C167   1.413   1_556  A
C166        H429   1.080       .  S
C167        C168   1.434       .  A
C168        C169   1.511       .  S
C169        H173   1.110       .  S
C169        H174   1.110       .  S
C169        H175   1.100       .  S
H171        C424   1.080       .  S
C172        C423   1.515       .  S
C172        H177   1.107       .  S
C172        H178   1.111       .  S
C172        H434   1.110       .  S
H176        C430   1.110       .  S
C179        C180   1.422       .  A
C179        C184   1.419       .  A
C179        H186   1.075       .  S
C180       C1213   1.436       .  A
C181        C188   1.511       .  S
C181       C1212   1.436       .  A
C181       C1214   1.407       .  A
C182        C183   1.413       .  A
C182       C1213   1.407       .  A
C182       H1219   1.082   1_455  S
C183        C184   1.423       .  A
C184        C185   1.507   1_554  S
C185        H189   1.105       .  S
C185        H191   1.108   1_556  S
C185        H448   1.100       .  S
H187       C1214   1.082       .  S
C188        H193   1.089       .  S
C188        H450   1.087   1_554  S
C188        H452   1.111       .  S
H190        C443   1.100       .  S
H192        C446   1.087       .  S
H194        C446   1.111       .  S
C195        C196   1.419       .  A
C195        C200   1.414       .  A
C195        H202   1.082       .  S
C196        C197   1.420   1_554  A
C197        C462   1.513       .  S
C197        C198   1.390       .  A
C198        C199   1.406   1_556  A
C198        H461   1.066       .  S
C199        C200   1.426       .  A
C200        C201   1.511       .  S
C201        H205   1.111       .  S
C201        H206   1.109       .  S
C201        H207   1.106       .  S
H203        C456   1.066       .  S
C204        C455   1.513       .  S
C204        H208   1.101       .  S
C204        H210   1.110       .  S
C204        H467   1.107       .  S
H209        C462   1.107       .  S
C211        C212   1.416       .  A
C211        C216   1.408       .  A
C211        H734   1.079       .  S
C212        C471   1.437   1_554  A
C213        C220   1.513       .  S
C213        C214   1.401       .  A
C213        C470   1.437       .  A
C214        C473   1.408       .  A
C214        H219   1.084       .  S
C215        C216   1.427       .  A
C215        C472   1.408   1_554  A
C216        C733   1.511       .  S
C217        C732   1.511       .  S
C217        H221   1.110       .  S
C217        H222   1.098       .  S
C217        H739   1.105       .  S
H218        C727   1.079       .  S
C220        H224   1.100       .  S
C220        H225   1.111       .  S
C220        H226   1.100       .  S
H223        C733   1.105       .  S
C227        C228   1.421   1_556  A
C227        C232   1.426       .  A
C227        H234   1.082       .  S
C228        C229   1.428       .  A
C229        C236   1.511       .  S
C229        C230   1.406       .  A
C230        C231   1.416       .  A
C230        H235   1.081       .  S
C231        C232   1.431   1_554  A
C232        C233   1.506       .  S
C233        H237   1.111       .  S
C233        H238   1.102       .  S
C233        H497   1.108       .  S
C236        H240   1.085       .  S
C236        H242   1.111       .  S
C236        H499   1.094   1_554  S
H239        C491   1.108       .  S
H241        C494   1.094       .  S
C243        C244   1.400       .  A
C243        C248   1.398       .  A
C243        H250   1.079       .  S
C244        C503   1.429       .  A
C245        C252   1.510       .  S
C245        C246   1.415       .  A
C245        C502   1.429       .  A
C246        C505   1.413       .  A
C246        H251   1.083       .  S
C247        C248   1.437       .  A
C247        C504   1.413       .  A
C248        C249   1.514       .  S
C249        H253   1.112       .  S
C249        H254   1.105   1_554  S
C249        H255   1.096       .  S
C252        H256   1.108       .  S
C252        H258   1.111       .  S
C252        H515   1.107       .  S
H257        C510   1.107   1_554  S
In259       O261   2.201       .  S
In259       O262   2.302   1_545  S
In259       O270   2.215       .  S
In259       O264   2.241       .  S
In259       O266   2.201       .  S
In259       O267   2.328   1_545  S
In259       O268   2.273       .  S
In259       O271   2.195       .  S
C260        O266   1.255       .  A
C260        O268   1.264       .  A
C260        C273   1.459       .  S
O261        C269   1.258       .  A
O262        C269   1.270   1_565  A
C263        O270   1.259       .  A
C263        O264   1.260       .  A
C263        C344   1.452       .  S
C265        O267   1.270       .  A
C265        O271   1.254   1_565  A
C265        C828   1.538       .  S
C269        C304   1.473       .  S
In272       O274   2.216       .  S
In272       O275   2.260       .  S
In272       O283   2.219       .  S
In272       O277   2.256       .  S
In272       O279   2.195       .  S
In272       O280   2.302       .  S
In272       O281   2.256       .  S
In272       O284   2.182       .  S
C273        O279   1.262       .  A
C273        O281   1.268       .  A
O274        C282   1.258       .  A
O275        C282   1.262       .  A
C276        O283   1.259       .  A
C276        O277   1.261       .  A
C276        C318   1.456       .  S
C278        O280   1.269       .  A
C278        O284   1.256       .  A
C278        C295   1.467       .  S
C282       C1348   1.543       .  S
In285       O287   2.180       .  S
In285       O288   2.303       .  S
In285       O296   2.208       .  S
In285       O290   2.259       .  S
In285       O292   2.211       .  S
In285       O293   2.285       .  S
In285       O294   2.264       .  S
In285       O297   2.227       .  S
C286        O292   1.264       .  A
C286        O294   1.269       .  A
C286        C299   1.468       .  S
O287        C295   1.255       .  A
O288        C295   1.270       .  A
C289        O296   1.257       .  A
C289        O290   1.262       .  A
C289        C370   1.454       .  S
C291        O293   1.263       .  A
C291        O297   1.259       .  A
C291       C1090   1.552   1_556  S
In298       O300   2.203       .  S
In298       O301   2.327   1_545  S
In298       O309   2.238       .  S
In298       O303   2.232       .  S
In298       O305   2.217       .  S
In298       O306   2.304   1_545  S
In298       O307   2.281       .  S
In298       O310   2.199       .  S
C299        O305   1.257       .  A
C299        O307   1.266       .  A
O300        C308   1.257   1_545  A
O301        C308   1.270       .  A
C302        O309   1.262       .  A
C302        O303   1.260       .  A
C302        C396   1.456       .  S
C304        O306   1.270   1_545  A
C304        O310   1.257       .  A
C308        C570   1.551   1_556  S
C311        C336   1.533       .  S
C311        C486   1.596       .  S
C311        C502   1.560       .  S
C312        C781   1.538       .  S
C312        C566   1.551       .  S
C312        C473   1.565       .  S
C312        C505   1.564       .  S
C313       C1359   1.539       .  S
C313       C1149   1.534       .  S
C313        C438   1.595       .  S
C313        C454   1.555       .  S
C314        C865   1.544       .  S
C314        C663   1.530       .  S
C314        C457   1.555       .  S
C314        C470   1.580       .  S
C315        C366   1.544       .  S
C315        C422   1.557       .  S
C315        C489   1.582       .  S
C316       C1314   1.543       .  S
C316       C1065   1.552       .  S
C316        C425   1.566       .  S
C316        C441   1.578       .  S
In317       O319   2.234       .  S
In317       O320   2.273       .  S
In317       O328   2.247       .  S
In317       O322   2.224       .  S
In317       O324   2.262       .  S
In317       O325   2.295       .  S
In317       O326   2.213       .  S
In317       O329   2.158       .  S
C318        O324   1.264       .  A
C318        O326   1.257       .  A
O319        C327   1.261       .  A
O320        C327   1.262       .  A
C321        O328   1.269       .  A
C321        O322   1.266       .  A
C321        C334   1.469       .  S
C323        O325   1.270       .  A
C323        O329   1.254       .  A
C323        C379   1.459       .  S
C327       C1345   1.539       .  S
In330       O332   2.157       .  S
In330       O333   2.301       .  S
In330       O341   2.248       .  S
In330       O335   2.224       .  S
In330       O337   2.265       .  S
In330       O338   2.268       .  S
In330       O339   2.212       .  S
In330       O342   2.251       .  S
C331        O337   1.264       .  A
C331        O339   1.257       .  A
C331        C357   1.455       .  S
O332        C340   1.254       .  A
O333        C340   1.269       .  A
C334        O341   1.269       .  A
C334        O335   1.266       .  A
C336        O338   1.260       .  A
C336        O342   1.261       .  A
C340        C388   1.459       .  S
In343       O345   2.187       .  S
In343       O346   2.293       .  S
In343       O354   2.263       .  S
In343       O348   2.207       .  S
In343       O350   2.242       .  S
In343       O351   2.289   1_545  S
In343       O352   2.221       .  S
In343       O355   2.215       .  S
C344        O350   1.261       .  A
C344        O352   1.258       .  A
O345        C353   1.258       .  A
O346        C353   1.271       .  A
C347        O354   1.267       .  A
C347        O348   1.261       .  A
C347        C360   1.464       .  S
C349        O351   1.268       .  A
C349        O355   1.259   1_565  A
C349        C830   1.544       .  S
C353        C401   1.468       .  S
In356       O358   2.237       .  S
In356       O359   2.271       .  S
In356       O367   2.256       .  S
In356       O361   2.205       .  S
In356       O363   2.259       .  S
In356       O364   2.306       .  S
In356       O365   2.215       .  S
In356       O368   2.176       .  S
C357        O363   1.262       .  A
C357        O365   1.258       .  A
O358        C366   1.259       .  A
O359        C366   1.262       .  A
C360        O367   1.269       .  A
C360        O361   1.263       .  A
C362        O364   1.270       .  A
C362        O368   1.255       .  A
C362        C418   1.466       .  S
In369       O371   2.162       .  S
In369       O372   2.293       .  S
In369       O380   2.240       .  S
In369       O374   2.206       .  S
In369       O376   2.263       .  S
In369       O377   2.239       .  S
In369       O378   2.206       .  S
In369       O381   2.240       .  S
C370        O376   1.265       .  A
C370        O378   1.257       .  A
O371        C379   1.256       .  A
O372        C379   1.269       .  A
C373        O380   1.268       .  A
C373        O374   1.265       .  A
C373        C386   1.460       .  S
C375        O377   1.260       .  A
C375        O381   1.260       .  A
C375       C1087   1.534   1_556  S
In382       O384   2.226       .  S
In382       O385   2.264       .  S
In382       O393   2.243       .  S
In382       O387   2.204       .  S
In382       O389   2.246       .  S
In382       O390   2.300       .  S
In382       O391   2.205       .  S
In382       O394   2.157       .  S
C383        O389   1.262       .  A
C383        O391   1.257       .  A
C383        C409   1.446       .  S
O384        C392   1.260       .  A
O385        C392   1.262       .  A
C386        O393   1.269       .  A
C386        O387   1.263       .  A
C388        O390   1.270       .  A
C388        O394   1.254       .  A
In395       O397   2.196       .  S
In395       O398   2.306   1_545  S
In395       O406   2.261       .  S
In395       O400   2.205       .  S
In395       O402   2.237       .  S
In395       O403   2.294       .  S
In395       O404   2.219       .  S
In395       O407   2.192       .  S
C396        O402   1.262       .  A
C396        O404   1.260       .  A
O397        C405   1.255   1_545  A
O398        C405   1.270       .  A
C399        O406   1.263       .  A
C399        O400   1.257       .  A
C399        C412   1.457       .  S
C401        O403   1.270       .  A
C401        O407   1.259       .  A
C405        C572   1.530   1_556  S
In408       O410   2.174       .  S
In408       O411   2.304       .  S
In408       O419   2.245       .  S
In408       O413   2.194       .  S
In408       O415   2.242       .  S
In408       O416   2.256       .  S
In408       O417   2.200       .  S
In408       O420   2.221       .  S
C409        O415   1.262       .  A
C409        O417   1.258       .  A
O410        C418   1.255       .  A
O411        C418   1.270       .  A
C412        O419   1.269       .  A
C412        O413   1.264       .  A
C414        O416   1.262       .  A
C414        O420   1.258       .  A
C421        C422   1.411       .  A
C421        C426   1.412       .  A
C421        H428   1.084       .  S
C422        C423   1.429       .  A
C423        C424   1.402       .  A
C424        C425   1.413       .  A
C425        C426   1.434       .  A
C426        C427   1.511       .  S
C427        H431   1.110       .  S
C427        H432   1.110       .  S
C427        H433   1.100       .  S
C430        H435   1.107       .  S
C430        H436   1.111       .  S
C437        C438   1.422       .  A
C437        C442   1.419       .  A
C437        H444   1.075       .  S
C438       C1471   1.436       .  A
C439        C446   1.511       .  S
C439       C1470   1.436       .  A
C439       C1472   1.407       .  A
C440       C1471   1.407       .  A
C440        C441   1.413       .  A
C440       H1477   1.082   1_455  S
C441        C442   1.423       .  A
C442        C443   1.507       .  S
C443        H447   1.105       .  S
C443        H449   1.108       .  S
H445       C1472   1.082       .  S
C446        H451   1.089       .  S
C453        C454   1.419       .  A
C453        C458   1.414       .  A
C453        H460   1.082       .  S
C454        C455   1.420       .  A
C455        C456   1.390       .  A
C456        C457   1.406       .  A
C457        C458   1.426       .  A
C458        C459   1.511       .  S
C459        H463   1.111       .  S
C459        H464   1.109       .  S
C459        H465   1.106       .  S
C462        H466   1.101       .  S
C462        H468   1.110       .  S
C469        C470   1.416       .  A
C469        C474   1.408       .  A
C469        H992   1.079       .  S
C471        C478   1.513       .  S
C471        C472   1.401       .  A
C472        H477   1.084       .  S
C473        C474   1.427       .  A
C474        C991   1.511       .  S
C475        C990   1.511       .  S
C475        H479   1.110       .  S
C475        H480   1.098       .  S
C475        H997   1.105       .  S
H476        C985   1.079       .  S
C478        H482   1.100       .  S
C478        H483   1.111       .  S
C478        H484   1.100       .  S
H481        C991   1.105       .  S
C485        C486   1.421       .  A
C485        C490   1.426       .  A
C485        H492   1.082       .  S
C486        C487   1.428       .  A
C487        C494   1.511       .  S
C487        C488   1.406       .  A
C488        C489   1.416       .  A
C488        H493   1.081       .  S
C489        C490   1.431       .  A
C490        C491   1.506       .  S
C491        H495   1.111       .  S
C491        H496   1.102       .  S
C494        H498   1.085       .  S
C494        H500   1.111       .  S
C501        C502   1.400       .  A
C501        C506   1.398       .  A
C501        H508   1.079       .  S
C503        C510   1.510   1_554  S
C503        C504   1.415       .  A
C504        H509   1.083       .  S
C505        C506   1.437       .  A
C506        C507   1.514       .  S
C507        H511   1.112       .  S
C507        H512   1.105       .  S
C507        H513   1.096       .  S
C510        H514   1.108       .  S
C510        H516   1.111       .  S
In517       O519   2.201       .  S
In517       O520   2.302       .  S
In517       O528   2.215       .  S
In517       O522   2.241       .  S
In517       O524   2.201       .  S
In517       O525   2.328       .  S
In517       O526   2.273       .  S
In517       O529   2.195       .  S
C518        O524   1.255       .  A
C518        O526   1.264       .  A
C518        C531   1.459       .  S
O519        C527   1.258       .  A
O520        C527   1.270       .  A
C521        O528   1.259       .  A
C521        O522   1.260       .  A
C521        C602   1.452       .  S
C523        O525   1.270       .  A
C523        O529   1.254       .  A
C527        C562   1.473       .  S
In530       O532   2.216       .  S
In530       O533   2.260       .  S
In530       O541   2.219       .  S
In530       O535   2.256       .  S
In530       O537   2.195       .  S
In530       O538   2.302       .  S
In530       O539   2.256       .  S
In530       O542   2.182       .  S
C531        O537   1.262       .  A
C531        O539   1.268       .  A
O532        C540   1.258       .  A
O533        C540   1.262       .  A
C534        O541   1.259       .  A
C534        O535   1.261       .  A
C534        C576   1.456       .  S
C536        O538   1.269       .  A
C536        O542   1.256       .  A
C536        C553   1.467       .  S
C540       C1606   1.543       .  S
In543       O545   2.180       .  S
In543       O546   2.303       .  S
In543       O554   2.208       .  S
In543       O548   2.259       .  S
In543       O550   2.211       .  S
In543       O551   2.285       .  S
In543       O552   2.264       .  S
In543       O555   2.227       .  S
C544        O550   1.264       .  A
C544        O552   1.269       .  A
C544        C557   1.468       .  S
O545        C553   1.255       .  A
O546        C553   1.270       .  A
C547        O554   1.257       .  A
C547        O548   1.262       .  A
C547        C628   1.454       .  S
C549        O551   1.263       .  A
C549        O555   1.259       .  A
C549       C1864   1.552       .  S
In556       O558   2.203       .  S
In556       O559   2.327       .  S
In556       O567   2.238       .  S
In556       O561   2.232       .  S
In556       O563   2.217       .  S
In556       O564   2.304       .  S
In556       O565   2.281       .  S
In556       O568   2.199       .  S
C557        O563   1.257       .  A
C557        O565   1.266       .  A
O558        C566   1.257       .  A
O559        C566   1.270       .  A
C560        O567   1.262       .  A
C560        O561   1.260       .  A
C560        C654   1.456       .  S
C562        O564   1.270       .  A
C562        O568   1.257       .  A
C569        C594   1.533       .  S
C569        C908   1.525   1_554  S
C569        C744   1.596       .  S
C569        C760   1.560       .  S
C570        C731   1.565       .  S
C570        C763   1.564       .  S
C571       C1617   1.539       .  S
C571       C1923   1.534   1_554  S
C571        C696   1.595       .  S
C571        C712   1.555       .  S
C572        C715   1.555       .  S
C572        C728   1.580       .  S
C573        C624   1.544       .  S
C573        C930   1.529   1_554  S
C573        C680   1.557       .  S
C573        C747   1.582       .  S
C574       C1572   1.543       .  S
C574       C1839   1.552   1_554  S
C574        C683   1.566       .  S
C574        C699   1.578       .  S
In575       O577   2.234       .  S
In575       O578   2.273       .  S
In575       O586   2.247       .  S
In575       O580   2.224       .  S
In575       O582   2.262       .  S
In575       O583   2.295       .  S
In575       O584   2.213       .  S
In575       O587   2.158       .  S
C576        O582   1.264       .  A
C576        O584   1.257       .  A
O577        C585   1.261       .  A
O578        C585   1.262       .  A
C579        O586   1.269       .  A
C579        O580   1.266       .  A
C579        C592   1.469       .  S
C581        O583   1.270       .  A
C581        O587   1.254       .  A
C581        C637   1.459       .  S
C585       C1603   1.539       .  S
In588       O590   2.157       .  S
In588       O591   2.301       .  S
In588       O599   2.248       .  S
In588       O593   2.224       .  S
In588       O595   2.265       .  S
In588       O596   2.268       .  S
In588       O597   2.212       .  S
In588       O600   2.251       .  S
C589        O595   1.264       .  A
C589        O597   1.257       .  A
C589        C615   1.455       .  S
O590        C598   1.254       .  A
O591        C598   1.269       .  A
C592        O599   1.269       .  A
C592        O593   1.266       .  A
C594        O596   1.260       .  A
C594        O600   1.261       .  A
C598        C646   1.459       .  S
In601       O603   2.187       .  S
In601       O604   2.293       .  S
In601       O612   2.263       .  S
In601       O606   2.207       .  S
In601       O608   2.242       .  S
In601       O609   2.289       .  S
In601       O610   2.221       .  S
In601       O613   2.215       .  S
C602        O608   1.261       .  A
C602        O610   1.258       .  A
O603        C611   1.258       .  A
O604        C611   1.271       .  A
C605        O612   1.267       .  A
C605        O606   1.261       .  A
C605        C618   1.464       .  S
C607        O609   1.268       .  A
C607        O613   1.259       .  A
C611        C659   1.468       .  S
In614       O616   2.237       .  S
In614       O617   2.271       .  S
In614       O625   2.256       .  S
In614       O619   2.205       .  S
In614       O621   2.259       .  S
In614       O622   2.306       .  S
In614       O623   2.215       .  S
In614       O626   2.176       .  S
C615        O621   1.262       .  A
C615        O623   1.258       .  A
O616        C624   1.259       .  A
O617        C624   1.262       .  A
C618        O625   1.269       .  A
C618        O619   1.263       .  A
C620        O622   1.270       .  A
C620        O626   1.255       .  A
C620        C676   1.466       .  S
In627       O629   2.162       .  S
In627       O630   2.293       .  S
In627       O638   2.240       .  S
In627       O632   2.206       .  S
In627       O634   2.263       .  S
In627       O635   2.239       .  S
In627       O636   2.206       .  S
In627       O639   2.240       .  S
C628        O634   1.265       .  A
C628        O636   1.257       .  A
O629        C637   1.256       .  A
O630        C637   1.269       .  A
C631        O638   1.268       .  A
C631        O632   1.265       .  A
C631        C644   1.460       .  S
C633        O635   1.260       .  A
C633        O639   1.260       .  A
C633       C1861   1.534       .  S
In640       O642   2.226       .  S
In640       O643   2.264       .  S
In640       O651   2.243       .  S
In640       O645   2.204       .  S
In640       O647   2.246       .  S
In640       O648   2.300       .  S
In640       O649   2.205       .  S
In640       O652   2.157       .  S
C641        O647   1.262       .  A
C641        O649   1.257       .  A
C641        C667   1.446       .  S
O642        C650   1.260       .  A
O643        C650   1.262       .  A
C644        O651   1.269       .  A
C644        O645   1.263       .  A
C646        O648   1.270       .  A
C646        O652   1.254       .  A
C650        C827   1.525       .  S
In653       O655   2.196       .  S
In653       O656   2.306       .  S
In653       O664   2.261       .  S
In653       O658   2.205       .  S
In653       O660   2.237       .  S
In653       O661   2.294       .  S
In653       O662   2.219       .  S
In653       O665   2.192       .  S
C654        O660   1.262       .  A
C654        O662   1.260       .  A
O655        C663   1.255       .  A
O656        C663   1.270       .  A
C657        O664   1.263       .  A
C657        O658   1.257       .  A
C657        C670   1.457       .  S
C659        O661   1.270       .  A
C659        O665   1.259       .  A
In666       O668   2.174       .  S
In666       O669   2.304       .  S
In666       O677   2.245       .  S
In666       O671   2.194       .  S
In666       O673   2.242       .  S
In666       O674   2.256       .  S
In666       O675   2.200       .  S
In666       O678   2.221       .  S
C667        O673   1.262       .  A
C667        O675   1.258       .  A
O668        C676   1.255       .  A
O669        C676   1.270       .  A
C670        O677   1.269       .  A
C670        O671   1.264       .  A
C672        O674   1.262       .  A
C672        O678   1.258       .  A
C672        C831   1.529       .  S
C679        C680   1.411       .  A
C679        C684   1.412       .  A
C679        H686   1.084       .  S
C680        C681   1.429   1_554  A
C681        C946   1.515       .  S
C681        C682   1.402       .  A
C682        C683   1.413   1_556  A
C682        H945   1.080       .  S
C683        C684   1.434       .  A
C684        C685   1.511       .  S
C685        H689   1.110       .  S
C685        H690   1.110       .  S
C685        H691   1.100       .  S
H687        C940   1.080       .  S
C688        C939   1.515       .  S
C688        H950   1.110       .  S
C688        H693   1.107       .  S
C688        H694   1.111       .  S
H692        C946   1.110       .  S
C695        C696   1.422       .  A
C695        C700   1.419       .  A
C695        H702   1.075       .  S
C696       C1729   1.436       .  A
C697        C704   1.511       .  S
C697       C1728   1.436       .  A
C697       C1730   1.407       .  A
C698       C1729   1.407       .  A
C698        C699   1.413       .  A
C698       H1735   1.082   1_455  S
C699        C700   1.423       .  A
C700        C701   1.507   1_554  S
C701        H705   1.105       .  S
C701        H964   1.100       .  S
C701        H707   1.108   1_556  S
H703       C1730   1.082       .  S
C704        H966   1.087   1_554  S
C704        H709   1.089       .  S
C704        H968   1.111       .  S
H706        C959   1.100       .  S
H708        C962   1.087       .  S
H710        C962   1.111       .  S
C711        C712   1.419       .  A
C711        C716   1.414       .  A
C711        H718   1.082       .  S
C712        C713   1.420   1_554  A
C713        C978   1.513       .  S
C713        C714   1.390       .  A
C714        C715   1.406   1_556  A
C714        H977   1.066       .  S
C715        C716   1.426       .  A
C716        C717   1.511       .  S
C717        H721   1.111       .  S
C717        H722   1.109       .  S
C717        H723   1.106       .  S
H719        C972   1.066       .  S
C720        C971   1.513       .  S
C720        H724   1.101       .  S
C720        H983   1.107       .  S
C720        H726   1.110       .  S
H725        C978   1.107       .  S
C727        C728   1.416       .  A
C727        C732   1.408       .  A
C728        C987   1.437   1_554  A
C729        C736   1.513       .  S
C729        C986   1.437       .  A
C729        C730   1.401       .  A
C730        C989   1.408       .  A
C730        H735   1.084       .  S
C731        C988   1.408   1_554  A
C731        C732   1.427       .  A
C733        H737   1.110       .  S
C733        H738   1.098       .  S
C736        H740   1.100       .  S
C736        H741   1.111       .  S
C736        H742   1.100       .  S
C743        C744   1.421   1_556  A
C743        C748   1.426       .  A
C743        H750   1.082       .  S
C744        C745   1.428       .  A
C745        C752   1.511       .  S
C745        C746   1.406       .  A
C746        C747   1.416       .  A
C746        H751   1.081       .  S
C747        C748   1.431   1_554  A
C748        C749   1.506       .  S
C749        H753   1.111       .  S
C749        H754   1.102       .  S
C749       H1013   1.108       .  S
C752        H756   1.085       .  S
C752       H1015   1.094   1_554  S
C752        H758   1.111       .  S
H755       C1007   1.108       .  S
H757       C1010   1.094       .  S
C759        C760   1.400       .  A
C759        C764   1.398       .  A
C759        H766   1.079       .  S
C760       C1019   1.429       .  A
C761        C768   1.510       .  S
C761       C1018   1.429       .  A
C761        C762   1.415       .  A
C762       C1021   1.413       .  A
C762        H767   1.083       .  S
C763       C1020   1.413       .  A
C763        C764   1.437       .  A
C764        C765   1.514       .  S
C765        H769   1.112       .  S
C765        H770   1.105   1_554  S
C765        H771   1.096       .  S
C768        H772   1.108       .  S
C768       H1031   1.107       .  S
C768        H774   1.111       .  S
H773       C1026   1.107   1_554  S
In775       O777   2.201       .  S
In775       O778   2.302       .  S
In775       O786   2.215       .  S
In775       O780   2.241       .  S
In775       O782   2.201       .  S
In775       O783   2.328       .  S
In775       O784   2.273       .  S
In775       O787   2.195       .  S
C776        O782   1.255       .  A
C776        O784   1.264       .  A
C776        C789   1.459       .  S
O777        C785   1.258       .  A
O778        C785   1.270       .  A
C779        O786   1.259       .  A
C779        O780   1.260       .  A
C779        C860   1.452       .  S
C781        O783   1.270       .  A
C781        O787   1.254       .  A
C785        C820   1.473       .  S
In788       O790   2.216       .  S
In788       O791   2.260       .  S
In788       O799   2.219       .  S
In788       O793   2.256       .  S
In788       O795   2.195       .  S
In788       O796   2.302       .  S
In788       O797   2.256       .  S
In788       O800   2.182       .  S
C789        O795   1.262       .  A
C789        O797   1.268       .  A
O790        C798   1.258       .  A
O791        C798   1.262       .  A
C792        O799   1.259       .  A
C792        O793   1.261       .  A
C792        C834   1.456       .  S
C794        O796   1.269       .  A
C794        O800   1.256       .  A
C794        C811   1.467       .  S
C798       C1864   1.543       .  S
In801       O803   2.180       .  S
In801       O804   2.303       .  S
In801       O812   2.208       .  S
In801       O806   2.259       .  S
In801       O808   2.211       .  S
In801       O809   2.285       .  S
In801       O810   2.264       .  S
In801       O813   2.227       .  S
C802        O808   1.264       .  A
C802        O810   1.269       .  A
C802        C815   1.468       .  S
O803        C811   1.255       .  A
O804        C811   1.270       .  A
C805        O812   1.257       .  A
C805        O806   1.262       .  A
C805        C886   1.454       .  S
C807        O809   1.263       .  A
C807        O813   1.259       .  A
C807       C1606   1.552   1_556  S
In814       O816   2.203       .  S
In814       O817   2.327       .  S
In814       O825   2.238       .  S
In814       O819   2.232       .  S
In814       O821   2.217       .  S
In814       O822   2.304       .  S
In814       O823   2.281       .  S
In814       O826   2.199       .  S
C815        O821   1.257       .  A
C815        O823   1.266       .  A
O816        C824   1.257       .  A
O817        C824   1.270       .  A
C818        O825   1.262       .  A
C818        O819   1.260       .  A
C818        C912   1.456       .  S
C820        O822   1.270       .  A
C820        O826   1.257       .  A
C827        C852   1.533       .  S
C827       C1002   1.596       .  S
C827       C1018   1.560       .  S
C828        C989   1.565       .  S
C828       C1021   1.564       .  S
C829       C1875   1.539       .  S
C829       C1665   1.534       .  S
C829        C954   1.595       .  S
C829        C970   1.555       .  S
C830        C973   1.555       .  S
C830        C986   1.580       .  S
C831        C882   1.544       .  S
C831        C938   1.557       .  S
C831       C1005   1.582       .  S
C832       C1830   1.543       .  S
C832       C1581   1.552       .  S
C832        C941   1.566       .  S
C832        C957   1.578       .  S
In833       O835   2.234       .  S
In833       O836   2.273       .  S
In833       O844   2.247       .  S
In833       O838   2.224       .  S
In833       O840   2.262       .  S
In833       O841   2.295       .  S
In833       O842   2.213       .  S
In833       O845   2.158       .  S
C834        O840   1.264       .  A
C834        O842   1.257       .  A
O835        C843   1.261       .  A
O836        C843   1.262       .  A
C837        O844   1.269       .  A
C837        O838   1.266       .  A
C837        C850   1.469       .  S
C839        O841   1.270       .  A
C839        O845   1.254       .  A
C839        C895   1.459       .  S
C843       C1861   1.539       .  S
In846       O848   2.157       .  S
In846       O849   2.301       .  S
In846       O857   2.248       .  S
In846       O851   2.224       .  S
In846       O853   2.265       .  S
In846       O854   2.268       .  S
In846       O855   2.212       .  S
In846       O858   2.251       .  S
C847        O853   1.264       .  A
C847        O855   1.257       .  A
C847        C873   1.455       .  S
O848        C856   1.254       .  A
O849        C856   1.269       .  A
C850        O857   1.269       .  A
C850        O851   1.266       .  A
C852        O854   1.260       .  A
C852        O858   1.261       .  A
C856        C904   1.459       .  S
In859       O861   2.187       .  S
In859       O862   2.293       .  S
In859       O870   2.263       .  S
In859       O864   2.207       .  S
In859       O866   2.242       .  S
In859       O867   2.289       .  S
In859       O868   2.221       .  S
In859       O871   2.215       .  S
C860        O866   1.261       .  A
C860        O868   1.258       .  A
O861        C869   1.258       .  A
O862        C869   1.271       .  A
C863        O870   1.267       .  A
C863        O864   1.261       .  A
C863        C876   1.464       .  S
C865        O867   1.268       .  A
C865        O871   1.259       .  A
C869        C917   1.468       .  S
In872       O874   2.237       .  S
In872       O875   2.271       .  S
In872       O883   2.256       .  S
In872       O877   2.205       .  S
In872       O879   2.259       .  S
In872       O880   2.306       .  S
In872       O881   2.215       .  S
In872       O884   2.176       .  S
C873        O879   1.262       .  A
C873        O881   1.258       .  A
O874        C882   1.259       .  A
O875        C882   1.262       .  A
C876        O883   1.269       .  A
C876        O877   1.263       .  A
C878        O880   1.270       .  A
C878        O884   1.255       .  A
C878        C934   1.466       .  S
In885       O887   2.162       .  S
In885       O888   2.293       .  S
In885       O896   2.240       .  S
In885       O890   2.206       .  S
In885       O892   2.263       .  S
In885       O893   2.239       .  S
In885       O894   2.206       .  S
In885       O897   2.240       .  S
C886        O892   1.265       .  A
C886        O894   1.257       .  A
O887        C895   1.256       .  A
O888        C895   1.269       .  A
C889        O896   1.268       .  A
C889        O890   1.265       .  A
C889        C902   1.460       .  S
C891        O893   1.260       .  A
C891        O897   1.260       .  A
C891       C1603   1.534   1_556  S
In898       O900   2.226       .  S
In898       O901   2.264       .  S
In898       O909   2.243       .  S
In898       O903   2.204       .  S
In898       O905   2.246       .  S
In898       O906   2.300       .  S
In898       O907   2.205       .  S
In898       O910   2.157       .  S
C899        O905   1.262       .  A
C899        O907   1.257       .  A
C899        C925   1.446       .  S
O900        C908   1.260       .  A
O901        C908   1.262       .  A
C902        O909   1.269       .  A
C902        O903   1.263       .  A
C904        O906   1.270       .  A
C904        O910   1.254       .  A
In911       O913   2.196       .  S
In911       O914   2.306       .  S
In911       O922   2.261       .  S
In911       O916   2.205       .  S
In911       O918   2.237       .  S
In911       O919   2.294       .  S
In911       O920   2.219       .  S
In911       O923   2.192       .  S
C912        O918   1.262       .  A
C912        O920   1.260       .  A
O913        C921   1.255       .  A
O914        C921   1.270       .  A
C915        O922   1.263       .  A
C915        O916   1.257       .  A
C915        C928   1.457       .  S
C917        O919   1.270       .  A
C917        O923   1.259       .  A
In924       O926   2.174       .  S
In924       O927   2.304       .  S
In924       O935   2.245       .  S
In924       O929   2.194       .  S
In924       O931   2.242       .  S
In924       O932   2.256       .  S
In924       O933   2.200       .  S
In924       O936   2.221       .  S
C925        O931   1.262       .  A
C925        O933   1.258       .  A
O926        C934   1.255       .  A
O927        C934   1.270       .  A
C928        O935   1.269       .  A
C928        O929   1.264       .  A
C930        O932   1.262       .  A
C930        O936   1.258       .  A
C937        C938   1.411       .  A
C937        C942   1.412       .  A
C937        H944   1.084       .  S
C938        C939   1.429       .  A
C939        C940   1.402       .  A
C940        C941   1.413       .  A
C941        C942   1.434       .  A
C942        C943   1.511       .  S
C943        H947   1.110       .  S
C943        H948   1.110       .  S
C943        H949   1.100       .  S
C946        H951   1.107       .  S
C946        H952   1.111       .  S
C953        C954   1.422       .  A
C953        C958   1.419       .  A
C953        H960   1.075       .  S
C954       C1987   1.436       .  A
C955        C962   1.511       .  S
C955       C1986   1.436       .  A
C955       C1988   1.407       .  A
C956       C1987   1.407       .  A
C956        C957   1.413       .  A
C956       H1993   1.082   1_455  S
C957        C958   1.423       .  A
C958        C959   1.507       .  S
C959        H963   1.105       .  S
C959        H965   1.108       .  S
H961       C1988   1.082       .  S
C962        H967   1.089       .  S
C969        C970   1.419       .  A
C969        C974   1.414       .  A
C969        H976   1.082       .  S
C970        C971   1.420       .  A
C971        C972   1.390       .  A
C972        C973   1.406       .  A
C973        C974   1.426       .  A
C974        C975   1.511       .  S
C975        H979   1.111       .  S
C975        H980   1.109       .  S
C975        H981   1.106       .  S
C978        H982   1.101       .  S
C978        H984   1.110       .  S
C985        C986   1.416       .  A
C985        C990   1.408       .  A
C987        C994   1.513       .  S
C987        C988   1.401       .  A
C988        H993   1.084       .  S
C989        C990   1.427       .  A
C991        H995   1.110       .  S
C991        H996   1.098       .  S
C994        H998   1.100       .  S
C994        H999   1.111       .  S
C994       H1000   1.100       .  S
C1001      C1002   1.421       .  A
C1001      C1006   1.426       .  A
C1001      H1008   1.082       .  S
C1002      C1003   1.428       .  A
C1003      C1010   1.511       .  S
C1003      C1004   1.406       .  A
C1004      C1005   1.416       .  A
C1004      H1009   1.081       .  S
C1005      C1006   1.431       .  A
C1006      C1007   1.506       .  S
C1007      H1011   1.111       .  S
C1007      H1012   1.102       .  S
C1010      H1014   1.085       .  S
C1010      H1016   1.111       .  S
C1017      C1018   1.400       .  A
C1017      C1022   1.398       .  A
C1017      H1024   1.079       .  S
C1019      C1026   1.510   1_554  S
C1019      C1020   1.415       .  A
C1020      H1025   1.083       .  S
C1021      C1022   1.437       .  A
C1022      C1023   1.514       .  S
C1023      H1027   1.112       .  S
C1023      H1028   1.105       .  S
C1023      H1029   1.096       .  S
C1026      H1030   1.108       .  S
C1026      H1032   1.111       .  S
In1033     O1035   2.201       .  S
In1033     O1036   2.302   1_545  S
In1033     O1044   2.215       .  S
In1033     O1038   2.241       .  S
In1033     O1040   2.201       .  S
In1033     O1041   2.328   1_545  S
In1033     O1042   2.273       .  S
In1033     O1045   2.195       .  S
C1034      O1040   1.255       .  A
C1034      O1042   1.264       .  A
C1034      C1047   1.459       .  S
O1035      C1043   1.258       .  A
O1036      C1043   1.270   1_565  A
C1037      O1044   1.259       .  A
C1037      O1038   1.260       .  A
C1037      C1118   1.452       .  S
C1039      O1041   1.270       .  A
C1039      O1045   1.254   1_565  A
C1039      C1602   1.538       .  S
C1043      C1078   1.473       .  S
In1046     O1048   2.216       .  S
In1046     O1049   2.260   1_655  S
In1046     O1057   2.219       .  S
In1046     O1051   2.256       .  S
In1046     O1053   2.195       .  S
In1046     O1054   2.302       .  S
In1046     O1055   2.256       .  S
In1046     O1058   2.182       .  S
C1047      O1053   1.262       .  A
C1047      O1055   1.268       .  A
O1048      C1056   1.258   1_655  A
O1049      C1056   1.262       .  A
C1050      O1057   1.259       .  A
C1050      O1051   1.261       .  A
C1050      C1092   1.456       .  S
C1052      O1054   1.269       .  A
C1052      O1058   1.256       .  A
C1052      C1069   1.467       .  S
In1059     O1061   2.180       .  S
In1059     O1062   2.303       .  S
In1059     O1070   2.208       .  S
In1059     O1064   2.259       .  S
In1059     O1066   2.211       .  S
In1059     O1067   2.285   1_655  S
In1059     O1068   2.264       .  S
In1059     O1071   2.227       .  S
C1060      O1066   1.264       .  A
C1060      O1068   1.269       .  A
C1060      C1073   1.468       .  S
O1061      C1069   1.255       .  A
O1062      C1069   1.270       .  A
C1063      O1070   1.257       .  A
C1063      O1064   1.262       .  A
C1063      C1144   1.454       .  S
C1065      O1067   1.263       .  A
C1065      O1071   1.259   1_455  A
In1072     O1074   2.203       .  S
In1072     O1075   2.327   1_545  S
In1072     O1083   2.238       .  S
In1072     O1077   2.232       .  S
In1072     O1079   2.217       .  S
In1072     O1080   2.304   1_545  S
In1072     O1081   2.281       .  S
In1072     O1084   2.199       .  S
C1073      O1079   1.257       .  A
C1073      O1081   1.266       .  A
O1074      C1082   1.257   1_545  A
O1075      C1082   1.270       .  A
C1076      O1083   1.262       .  A
C1076      O1077   1.260       .  A
C1076      C1170   1.456       .  S
C1078      O1080   1.270   1_545  A
C1078      O1084   1.257       .  A
C1082      C1860   1.551       .  S
C1085      C1110   1.533       .  S
C1085      C1424   1.525   1_554  S
C1085      C1260   1.596       .  S
C1085      C1276   1.560       .  S
C1086      C1555   1.538       .  S
C1086      C1856   1.551   1_554  S
C1086      C1247   1.565       .  S
C1086      C1279   1.564       .  S
C1087      C1212   1.595       .  S
C1087      C1228   1.555       .  S
C1088      C1639   1.544       .  S
C1088      C1953   1.530   1_554  S
C1088      C1231   1.555       .  S
C1088      C1244   1.580       .  S
C1089      C1140   1.544       .  S
C1089      C1446   1.529   1_554  S
C1089      C1196   1.557       .  S
C1089      C1263   1.582       .  S
C1090      C1199   1.566       .  S
C1090      C1215   1.578       .  S
In1091     O1093   2.234       .  S
In1091     O1094   2.273   1_655  S
In1091     O1102   2.247       .  S
In1091     O1096   2.224       .  S
In1091     O1098   2.262       .  S
In1091     O1099   2.295       .  S
In1091     O1100   2.213       .  S
In1091     O1103   2.158       .  S
C1092      O1098   1.264       .  A
C1092      O1100   1.257       .  A
O1093      C1101   1.261   1_655  A
O1094      C1101   1.262       .  A
C1095      O1102   1.269       .  A
C1095      O1096   1.266       .  A
C1095      C1108   1.469       .  S
C1097      O1099   1.270       .  A
C1097      O1103   1.254       .  A
C1097      C1153   1.459       .  S
In1104     O1106   2.157       .  S
In1104     O1107   2.301       .  S
In1104     O1115   2.248       .  S
In1104     O1109   2.224       .  S
In1104     O1111   2.265       .  S
In1104     O1112   2.268       .  S
In1104     O1113   2.212       .  S
In1104     O1116   2.251       .  S
C1105      O1111   1.264       .  A
C1105      O1113   1.257       .  A
C1105      C1131   1.455       .  S
O1106      C1114   1.254       .  A
O1107      C1114   1.269       .  A
C1108      O1115   1.269       .  A
C1108      O1109   1.266       .  A
C1110      O1112   1.260       .  A
C1110      O1116   1.261       .  A
C1114      C1162   1.459       .  S
In1117     O1119   2.187       .  S
In1117     O1120   2.293       .  S
In1117     O1128   2.263       .  S
In1117     O1122   2.207       .  S
In1117     O1124   2.242       .  S
In1117     O1125   2.289   1_545  S
In1117     O1126   2.221       .  S
In1117     O1129   2.215       .  S
C1118      O1124   1.261       .  A
C1118      O1126   1.258       .  A
O1119      C1127   1.258       .  A
O1120      C1127   1.271       .  A
C1121      O1128   1.267       .  A
C1121      O1122   1.261       .  A
C1121      C1134   1.464       .  S
C1123      O1125   1.268       .  A
C1123      O1129   1.259   1_565  A
C1123      C1604   1.544       .  S
C1127      C1175   1.468       .  S
In1130     O1132   2.237       .  S
In1130     O1133   2.271       .  S
In1130     O1141   2.256       .  S
In1130     O1135   2.205       .  S
In1130     O1137   2.259       .  S
In1130     O1138   2.306       .  S
In1130     O1139   2.215       .  S
In1130     O1142   2.176       .  S
C1131      O1137   1.262       .  A
C1131      O1139   1.258       .  A
O1132      C1140   1.259       .  A
O1133      C1140   1.262       .  A
C1134      O1141   1.269       .  A
C1134      O1135   1.263       .  A
C1136      O1138   1.270       .  A
C1136      O1142   1.255       .  A
C1136      C1192   1.466       .  S
In1143     O1145   2.162       .  S
In1143     O1146   2.293       .  S
In1143     O1154   2.240       .  S
In1143     O1148   2.206       .  S
In1143     O1150   2.263       .  S
In1143     O1151   2.239   1_655  S
In1143     O1152   2.206       .  S
In1143     O1155   2.240       .  S
C1144      O1150   1.265       .  A
C1144      O1152   1.257       .  A
O1145      C1153   1.256       .  A
O1146      C1153   1.269       .  A
C1147      O1154   1.268       .  A
C1147      O1148   1.265       .  A
C1147      C1160   1.460       .  S
C1149      O1151   1.260       .  A
C1149      O1155   1.260   1_455  A
In1156     O1158   2.226       .  S
In1156     O1159   2.264       .  S
In1156     O1167   2.243       .  S
In1156     O1161   2.204       .  S
In1156     O1163   2.246       .  S
In1156     O1164   2.300       .  S
In1156     O1165   2.205       .  S
In1156     O1168   2.157       .  S
C1157      O1163   1.262       .  A
C1157      O1165   1.257       .  A
C1157      C1183   1.446       .  S
O1158      C1166   1.260       .  A
O1159      C1166   1.262       .  A
C1160      O1167   1.269       .  A
C1160      O1161   1.263       .  A
C1162      O1164   1.270       .  A
C1162      O1168   1.254       .  A
C1166      C1343   1.525       .  S
In1169     O1171   2.196       .  S
In1169     O1172   2.306   1_545  S
In1169     O1180   2.261       .  S
In1169     O1174   2.205       .  S
In1169     O1176   2.237       .  S
In1169     O1177   2.294       .  S
In1169     O1178   2.219       .  S
In1169     O1181   2.192       .  S
C1170      O1176   1.262       .  A
C1170      O1178   1.260       .  A
O1171      C1179   1.255   1_545  A
O1172      C1179   1.270       .  A
C1173      O1180   1.263       .  A
C1173      O1174   1.257       .  A
C1173      C1186   1.457       .  S
C1175      O1177   1.270       .  A
C1175      O1181   1.259       .  A
C1179      C1862   1.530       .  S
In1182     O1184   2.174       .  S
In1182     O1185   2.304       .  S
In1182     O1193   2.245       .  S
In1182     O1187   2.194       .  S
In1182     O1189   2.242       .  S
In1182     O1190   2.256       .  S
In1182     O1191   2.200       .  S
In1182     O1194   2.221       .  S
C1183      O1189   1.262       .  A
C1183      O1191   1.258       .  A
O1184      C1192   1.255       .  A
O1185      C1192   1.270       .  A
C1186      O1193   1.269       .  A
C1186      O1187   1.264       .  A
C1188      O1190   1.262       .  A
C1188      O1194   1.258       .  A
C1188      C1347   1.529       .  S
C1195      C1196   1.411       .  A
C1195      C1200   1.412       .  A
C1195      H1202   1.084       .  S
C1196      C1197   1.429   1_554  A
C1197      C1462   1.515       .  S
C1197      C1198   1.402       .  A
C1198      C1199   1.413   1_556  A
C1198      H1461   1.080       .  S
C1199      C1200   1.434       .  A
C1200      C1201   1.511       .  S
C1201      H1205   1.110       .  S
C1201      H1206   1.110       .  S
C1201      H1207   1.100       .  S
H1203      C1456   1.080       .  S
C1204      C1455   1.515       .  S
C1204      H1466   1.110       .  S
C1204      H1209   1.107       .  S
C1204      H1210   1.111       .  S
H1208      C1462   1.110       .  S
C1211      C1212   1.422       .  A
C1211      C1216   1.419       .  A
C1211      H1218   1.075       .  S
C1213      C1220   1.511   1_455  S
C1214      C1215   1.413       .  A
C1215      C1216   1.423       .  A
C1216      C1217   1.507   1_554  S
C1217      H1221   1.105       .  S
C1217      H1480   1.100       .  S
C1217      H1223   1.108   1_556  S
C1220      H1482   1.087   1_554  S
C1220      H1225   1.089       .  S
C1220      H1484   1.111       .  S
H1222      C1475   1.100       .  S
H1224      C1478   1.087       .  S
H1226      C1478   1.111       .  S
C1227      C1228   1.419       .  A
C1227      C1232   1.414       .  A
C1227      H1234   1.082       .  S
C1228      C1229   1.420   1_554  A
C1229      C1494   1.513       .  S
C1229      C1230   1.390       .  A
C1230      C1231   1.406   1_556  A
C1230      H1493   1.066       .  S
C1231      C1232   1.426       .  A
C1232      C1233   1.511       .  S
C1233      H1237   1.111       .  S
C1233      H1238   1.109       .  S
C1233      H1239   1.106       .  S
H1235      C1488   1.066       .  S
C1236      C1487   1.513       .  S
C1236      H1240   1.101       .  S
C1236      H1499   1.107       .  S
C1236      H1242   1.110       .  S
H1241      C1494   1.107       .  S
C1243      C1244   1.416       .  A
C1243      C1248   1.408       .  A
C1243      H1766   1.079       .  S
C1244      C1503   1.437   1_554  A
C1245      C1252   1.513       .  S
C1245      C1502   1.437       .  A
C1245      C1246   1.401       .  A
C1246      C1505   1.408       .  A
C1246      H1251   1.084       .  S
C1247      C1504   1.408   1_554  A
C1247      C1248   1.427       .  A
C1248      C1765   1.511       .  S
C1249      C1764   1.511       .  S
C1249      H1253   1.110       .  S
C1249      H1254   1.098       .  S
C1249      H1771   1.105       .  S
H1250      C1759   1.079       .  S
C1252      H1256   1.100       .  S
C1252      H1257   1.111       .  S
C1252      H1258   1.100       .  S
H1255      C1765   1.105       .  S
C1259      C1260   1.421   1_556  A
C1259      C1264   1.426       .  A
C1259      H1266   1.082       .  S
C1260      C1261   1.428       .  A
C1261      C1268   1.511       .  S
C1261      C1262   1.406       .  A
C1262      C1263   1.416       .  A
C1262      H1267   1.081       .  S
C1263      C1264   1.431   1_554  A
C1264      C1265   1.506       .  S
C1265      H1269   1.111       .  S
C1265      H1270   1.102       .  S
C1265      H1529   1.108       .  S
C1268      H1272   1.085       .  S
C1268      H1531   1.094   1_554  S
C1268      H1274   1.111       .  S
H1271      C1523   1.108       .  S
H1273      C1526   1.094       .  S
C1275      C1276   1.400       .  A
C1275      C1280   1.398       .  A
C1275      H1282   1.079       .  S
C1276      C1535   1.429       .  A
C1277      C1284   1.510       .  S
C1277      C1534   1.429       .  A
C1277      C1278   1.415       .  A
C1278      C1537   1.413       .  A
C1278      H1283   1.083       .  S
C1279      C1536   1.413       .  A
C1279      C1280   1.437       .  A
C1280      C1281   1.514       .  S
C1281      H1285   1.112       .  S
C1281      H1286   1.105   1_554  S
C1281      H1287   1.096       .  S
C1284      H1288   1.108       .  S
C1284      H1547   1.107       .  S
C1284      H1290   1.111       .  S
H1289      C1542   1.107   1_554  S
In1291     O1293   2.201       .  S
In1291     O1294   2.302   1_545  S
In1291     O1302   2.215       .  S
In1291     O1296   2.241       .  S
In1291     O1298   2.201       .  S
In1291     O1299   2.328   1_545  S
In1291     O1300   2.273       .  S
In1291     O1303   2.195       .  S
C1292      O1298   1.255       .  A
C1292      O1300   1.264       .  A
C1292      C1305   1.459       .  S
O1293      C1301   1.258       .  A
O1294      C1301   1.270   1_565  A
C1295      O1302   1.259       .  A
C1295      O1296   1.260       .  A
C1295      C1376   1.452       .  S
C1297      O1299   1.270       .  A
C1297      O1303   1.254   1_565  A
C1297      C1860   1.538       .  S
C1301      C1336   1.473       .  S
In1304     O1306   2.216       .  S
In1304     O1307   2.260   1_655  S
In1304     O1315   2.219       .  S
In1304     O1309   2.256       .  S
In1304     O1311   2.195       .  S
In1304     O1312   2.302       .  S
In1304     O1313   2.256       .  S
In1304     O1316   2.182       .  S
C1305      O1311   1.262       .  A
C1305      O1313   1.268       .  A
O1306      C1314   1.258   1_655  A
O1307      C1314   1.262       .  A
C1308      O1315   1.259       .  A
C1308      O1309   1.261       .  A
C1308      C1350   1.456       .  S
C1310      O1312   1.269       .  A
C1310      O1316   1.256       .  A
C1310      C1327   1.467       .  S
In1317     O1319   2.180       .  S
In1317     O1320   2.303       .  S
In1317     O1328   2.208       .  S
In1317     O1322   2.259       .  S
In1317     O1324   2.211       .  S
In1317     O1325   2.285   1_655  S
In1317     O1326   2.264       .  S
In1317     O1329   2.227       .  S
C1318      O1324   1.264       .  A
C1318      O1326   1.269       .  A
C1318      C1331   1.468       .  S
O1319      C1327   1.255       .  A
O1320      C1327   1.270       .  A
C1321      O1328   1.257       .  A
C1321      O1322   1.262       .  A
C1321      C1402   1.454       .  S
C1323      O1325   1.263       .  A
C1323      O1329   1.259   1_455  A
In1330     O1332   2.203       .  S
In1330     O1333   2.327   1_545  S
In1330     O1341   2.238       .  S
In1330     O1335   2.232       .  S
In1330     O1337   2.217       .  S
In1330     O1338   2.304   1_545  S
In1330     O1339   2.281       .  S
In1330     O1342   2.199       .  S
C1331      O1337   1.257       .  A
C1331      O1339   1.266       .  A
O1332      C1340   1.257   1_545  A
O1333      C1340   1.270       .  A
C1334      O1341   1.262       .  A
C1334      O1335   1.260       .  A
C1334      C1428   1.456       .  S
C1336      O1338   1.270   1_545  A
C1336      O1342   1.257       .  A
C1340      C1602   1.551   1_556  S
C1343      C1368   1.533       .  S
C1343      C1518   1.596       .  S
C1343      C1534   1.560       .  S
C1344      C1813   1.538       .  S
C1344      C1598   1.551       .  S
C1344      C1505   1.565       .  S
C1344      C1537   1.564       .  S
C1345      C1470   1.595       .  S
C1345      C1486   1.555       .  S
C1346      C1897   1.544       .  S
C1346      C1695   1.530       .  S
C1346      C1489   1.555       .  S
C1346      C1502   1.580       .  S
C1347      C1398   1.544       .  S
C1347      C1454   1.557       .  S
C1347      C1521   1.582       .  S
C1348      C1457   1.566       .  S
C1348      C1473   1.578       .  S
In1349     O1351   2.234       .  S
In1349     O1352   2.273   1_655  S
In1349     O1360   2.247       .  S
In1349     O1354   2.224       .  S
In1349     O1356   2.262       .  S
In1349     O1357   2.295       .  S
In1349     O1358   2.213       .  S
In1349     O1361   2.158       .  S
C1350      O1356   1.264       .  A
C1350      O1358   1.257       .  A
O1351      C1359   1.261   1_655  A
O1352      C1359   1.262       .  A
C1353      O1360   1.269       .  A
C1353      O1354   1.266       .  A
C1353      C1366   1.469       .  S
C1355      O1357   1.270       .  A
C1355      O1361   1.254       .  A
C1355      C1411   1.459       .  S
In1362     O1364   2.157       .  S
In1362     O1365   2.301       .  S
In1362     O1373   2.248       .  S
In1362     O1367   2.224       .  S
In1362     O1369   2.265       .  S
In1362     O1370   2.268       .  S
In1362     O1371   2.212       .  S
In1362     O1374   2.251       .  S
C1363      O1369   1.264       .  A
C1363      O1371   1.257       .  A
C1363      C1389   1.455       .  S
O1364      C1372   1.254       .  A
O1365      C1372   1.269       .  A
C1366      O1373   1.269       .  A
C1366      O1367   1.266       .  A
C1368      O1370   1.260       .  A
C1368      O1374   1.261       .  A
C1372      C1420   1.459       .  S
In1375     O1377   2.187       .  S
In1375     O1378   2.293       .  S
In1375     O1386   2.263       .  S
In1375     O1380   2.207       .  S
In1375     O1382   2.242       .  S
In1375     O1383   2.289   1_545  S
In1375     O1384   2.221       .  S
In1375     O1387   2.215       .  S
C1376      O1382   1.261       .  A
C1376      O1384   1.258       .  A
O1377      C1385   1.258       .  A
O1378      C1385   1.271       .  A
C1379      O1386   1.267       .  A
C1379      O1380   1.261       .  A
C1379      C1392   1.464       .  S
C1381      O1383   1.268       .  A
C1381      O1387   1.259   1_565  A
C1381      C1862   1.544       .  S
C1385      C1433   1.468       .  S
In1388     O1390   2.237       .  S
In1388     O1391   2.271       .  S
In1388     O1399   2.256       .  S
In1388     O1393   2.205       .  S
In1388     O1395   2.259       .  S
In1388     O1396   2.306       .  S
In1388     O1397   2.215       .  S
In1388     O1400   2.176       .  S
C1389      O1395   1.262       .  A
C1389      O1397   1.258       .  A
O1390      C1398   1.259       .  A
O1391      C1398   1.262       .  A
C1392      O1399   1.269       .  A
C1392      O1393   1.263       .  A
C1394      O1396   1.270       .  A
C1394      O1400   1.255       .  A
C1394      C1450   1.466       .  S
In1401     O1403   2.162       .  S
In1401     O1404   2.293       .  S
In1401     O1412   2.240       .  S
In1401     O1406   2.206       .  S
In1401     O1408   2.263       .  S
In1401     O1409   2.239   1_655  S
In1401     O1410   2.206       .  S
In1401     O1413   2.240       .  S
C1402      O1408   1.265       .  A
C1402      O1410   1.257       .  A
O1403      C1411   1.256       .  A
O1404      C1411   1.269       .  A
C1405      O1412   1.268       .  A
C1405      O1406   1.265       .  A
C1405      C1418   1.460       .  S
C1407      O1409   1.260       .  A
C1407      O1413   1.260   1_455  A
In1414     O1416   2.226       .  S
In1414     O1417   2.264       .  S
In1414     O1425   2.243       .  S
In1414     O1419   2.204       .  S
In1414     O1421   2.246       .  S
In1414     O1422   2.300       .  S
In1414     O1423   2.205       .  S
In1414     O1426   2.157       .  S
C1415      O1421   1.262       .  A
C1415      O1423   1.257       .  A
C1415      C1441   1.446       .  S
O1416      C1424   1.260       .  A
O1417      C1424   1.262       .  A
C1418      O1425   1.269       .  A
C1418      O1419   1.263       .  A
C1420      O1422   1.270       .  A
C1420      O1426   1.254       .  A
In1427     O1429   2.196       .  S
In1427     O1430   2.306   1_545  S
In1427     O1438   2.261       .  S
In1427     O1432   2.205       .  S
In1427     O1434   2.237       .  S
In1427     O1435   2.294       .  S
In1427     O1436   2.219       .  S
In1427     O1439   2.192       .  S
C1428      O1434   1.262       .  A
C1428      O1436   1.260       .  A
O1429      C1437   1.255   1_545  A
O1430      C1437   1.270       .  A
C1431      O1438   1.263       .  A
C1431      O1432   1.257       .  A
C1431      C1444   1.457       .  S
C1433      O1435   1.270       .  A
C1433      O1439   1.259       .  A
C1437      C1604   1.530   1_556  S
In1440     O1442   2.174       .  S
In1440     O1443   2.304       .  S
In1440     O1451   2.245       .  S
In1440     O1445   2.194       .  S
In1440     O1447   2.242       .  S
In1440     O1448   2.256       .  S
In1440     O1449   2.200       .  S
In1440     O1452   2.221       .  S
C1441      O1447   1.262       .  A
C1441      O1449   1.258       .  A
O1442      C1450   1.255       .  A
O1443      C1450   1.270       .  A
C1444      O1451   1.269       .  A
C1444      O1445   1.264       .  A
C1446      O1448   1.262       .  A
C1446      O1452   1.258       .  A
C1453      C1454   1.411       .  A
C1453      C1458   1.412       .  A
C1453      H1460   1.084       .  S
C1454      C1455   1.429       .  A
C1455      C1456   1.402       .  A
C1456      C1457   1.413       .  A
C1457      C1458   1.434       .  A
C1458      C1459   1.511       .  S
C1459      H1463   1.110       .  S
C1459      H1464   1.110       .  S
C1459      H1465   1.100       .  S
C1462      H1467   1.107       .  S
C1462      H1468   1.111       .  S
C1469      C1470   1.422       .  A
C1469      C1474   1.419       .  A
C1469      H1476   1.075       .  S
C1471      C1478   1.511   1_455  S
C1472      C1473   1.413       .  A
C1473      C1474   1.423       .  A
C1474      C1475   1.507       .  S
C1475      H1479   1.105       .  S
C1475      H1481   1.108       .  S
C1478      H1483   1.089       .  S
C1485      C1486   1.419       .  A
C1485      C1490   1.414       .  A
C1485      H1492   1.082       .  S
C1486      C1487   1.420       .  A
C1487      C1488   1.390       .  A
C1488      C1489   1.406       .  A
C1489      C1490   1.426       .  A
C1490      C1491   1.511       .  S
C1491      H1495   1.111       .  S
C1491      H1496   1.109       .  S
C1491      H1497   1.106       .  S
C1494      H1498   1.101       .  S
C1494      H1500   1.110       .  S
C1501      C1502   1.416       .  A
C1501      C1506   1.408       .  A
C1501      H2024   1.079       .  S
C1503      C1510   1.513       .  S
C1503      C1504   1.401       .  A
C1504      H1509   1.084       .  S
C1505      C1506   1.427       .  A
C1506      C2023   1.511       .  S
C1507      C2022   1.511       .  S
C1507      H1511   1.110       .  S
C1507      H1512   1.098       .  S
C1507      H2029   1.105       .  S
H1508      C2017   1.079       .  S
C1510      H1514   1.100       .  S
C1510      H1515   1.111       .  S
C1510      H1516   1.100       .  S
H1513      C2023   1.105       .  S
C1517      C1518   1.421       .  A
C1517      C1522   1.426       .  A
C1517      H1524   1.082       .  S
C1518      C1519   1.428       .  A
C1519      C1526   1.511       .  S
C1519      C1520   1.406       .  A
C1520      C1521   1.416       .  A
C1520      H1525   1.081       .  S
C1521      C1522   1.431       .  A
C1522      C1523   1.506       .  S
C1523      H1527   1.111       .  S
C1523      H1528   1.102       .  S
C1526      H1530   1.085       .  S
C1526      H1532   1.111       .  S
C1533      C1534   1.400       .  A
C1533      C1538   1.398       .  A
C1533      H1540   1.079       .  S
C1535      C1542   1.510   1_554  S
C1535      C1536   1.415       .  A
C1536      H1541   1.083       .  S
C1537      C1538   1.437       .  A
C1538      C1539   1.514       .  S
C1539      H1543   1.112       .  S
C1539      H1544   1.105       .  S
C1539      H1545   1.096       .  S
C1542      H1546   1.108       .  S
C1542      H1548   1.111       .  S
In1549     O1551   2.201       .  S
In1549     O1552   2.302       .  S
In1549     O1560   2.215       .  S
In1549     O1554   2.241       .  S
In1549     O1556   2.201       .  S
In1549     O1557   2.328       .  S
In1549     O1558   2.273       .  S
In1549     O1561   2.195       .  S
C1550      O1556   1.255       .  A
C1550      O1558   1.264       .  A
C1550      C1563   1.459       .  S
O1551      C1559   1.258       .  A
O1552      C1559   1.270       .  A
C1553      O1560   1.259       .  A
C1553      O1554   1.260       .  A
C1553      C1634   1.452       .  S
C1555      O1557   1.270       .  A
C1555      O1561   1.254       .  A
C1559      C1594   1.473       .  S
In1562     O1564   2.216       .  S
In1562     O1565   2.260   1_655  S
In1562     O1573   2.219       .  S
In1562     O1567   2.256       .  S
In1562     O1569   2.195       .  S
In1562     O1570   2.302       .  S
In1562     O1571   2.256       .  S
In1562     O1574   2.182       .  S
C1563      O1569   1.262       .  A
C1563      O1571   1.268       .  A
O1564      C1572   1.258   1_655  A
O1565      C1572   1.262       .  A
C1566      O1573   1.259       .  A
C1566      O1567   1.261       .  A
C1566      C1608   1.456       .  S
C1568      O1570   1.269       .  A
C1568      O1574   1.256       .  A
C1568      C1585   1.467       .  S
In1575     O1577   2.180       .  S
In1575     O1578   2.303       .  S
In1575     O1586   2.208       .  S
In1575     O1580   2.259       .  S
In1575     O1582   2.211       .  S
In1575     O1583   2.285   1_655  S
In1575     O1584   2.264       .  S
In1575     O1587   2.227       .  S
C1576      O1582   1.264       .  A
C1576      O1584   1.269       .  A
C1576      C1589   1.468       .  S
O1577      C1585   1.255       .  A
O1578      C1585   1.270       .  A
C1579      O1586   1.257       .  A
C1579      O1580   1.262       .  A
C1579      C1660   1.454       .  S
C1581      O1583   1.263       .  A
C1581      O1587   1.259   1_455  A
In1588     O1590   2.203       .  S
In1588     O1591   2.327       .  S
In1588     O1599   2.238       .  S
In1588     O1593   2.232       .  S
In1588     O1595   2.217       .  S
In1588     O1596   2.304       .  S
In1588     O1597   2.281       .  S
In1588     O1600   2.199       .  S
C1589      O1595   1.257       .  A
C1589      O1597   1.266       .  A
O1590      C1598   1.257       .  A
O1591      C1598   1.270       .  A
C1592      O1599   1.262       .  A
C1592      O1593   1.260       .  A
C1592      C1686   1.456       .  S
C1594      O1596   1.270       .  A
C1594      O1600   1.257       .  A
C1601      C1626   1.533       .  S
C1601      C1940   1.525   1_554  S
C1601      C1776   1.596       .  S
C1601      C1792   1.560       .  S
C1602      C1763   1.565       .  S
C1602      C1795   1.564       .  S
C1603      C1728   1.595       .  S
C1603      C1744   1.555       .  S
C1604      C1747   1.555       .  S
C1604      C1760   1.580       .  S
C1605      C1656   1.544       .  S
C1605      C1962   1.529   1_554  S
C1605      C1712   1.557       .  S
C1605      C1779   1.582       .  S
C1606      C1715   1.566       .  S
C1606      C1731   1.578       .  S
In1607     O1609   2.234       .  S
In1607     O1610   2.273   1_655  S
In1607     O1618   2.247       .  S
In1607     O1612   2.224       .  S
In1607     O1614   2.262       .  S
In1607     O1615   2.295       .  S
In1607     O1616   2.213       .  S
In1607     O1619   2.158       .  S
C1608      O1614   1.264       .  A
C1608      O1616   1.257       .  A
O1609      C1617   1.261   1_655  A
O1610      C1617   1.262       .  A
C1611      O1618   1.269       .  A
C1611      O1612   1.266       .  A
C1611      C1624   1.469       .  S
C1613      O1615   1.270       .  A
C1613      O1619   1.254       .  A
C1613      C1669   1.459       .  S
In1620     O1622   2.157       .  S
In1620     O1623   2.301       .  S
In1620     O1631   2.248       .  S
In1620     O1625   2.224       .  S
In1620     O1627   2.265       .  S
In1620     O1628   2.268       .  S
In1620     O1629   2.212       .  S
In1620     O1632   2.251       .  S
C1621      O1627   1.264       .  A
C1621      O1629   1.257       .  A
C1621      C1647   1.455       .  S
O1622      C1630   1.254       .  A
O1623      C1630   1.269       .  A
C1624      O1631   1.269       .  A
C1624      O1625   1.266       .  A
C1626      O1628   1.260       .  A
C1626      O1632   1.261       .  A
C1630      C1678   1.459       .  S
In1633     O1635   2.187       .  S
In1633     O1636   2.293       .  S
In1633     O1644   2.263       .  S
In1633     O1638   2.207       .  S
In1633     O1640   2.242       .  S
In1633     O1641   2.289       .  S
In1633     O1642   2.221       .  S
In1633     O1645   2.215       .  S
C1634      O1640   1.261       .  A
C1634      O1642   1.258       .  A
O1635      C1643   1.258       .  A
O1636      C1643   1.271       .  A
C1637      O1644   1.267       .  A
C1637      O1638   1.261       .  A
C1637      C1650   1.464       .  S
C1639      O1641   1.268       .  A
C1639      O1645   1.259       .  A
C1643      C1691   1.468       .  S
In1646     O1648   2.237       .  S
In1646     O1649   2.271       .  S
In1646     O1657   2.256       .  S
In1646     O1651   2.205       .  S
In1646     O1653   2.259       .  S
In1646     O1654   2.306       .  S
In1646     O1655   2.215       .  S
In1646     O1658   2.176       .  S
C1647      O1653   1.262       .  A
C1647      O1655   1.258       .  A
O1648      C1656   1.259       .  A
O1649      C1656   1.262       .  A
C1650      O1657   1.269       .  A
C1650      O1651   1.263       .  A
C1652      O1654   1.270       .  A
C1652      O1658   1.255       .  A
C1652      C1708   1.466       .  S
In1659     O1661   2.162       .  S
In1659     O1662   2.293       .  S
In1659     O1670   2.240       .  S
In1659     O1664   2.206       .  S
In1659     O1666   2.263       .  S
In1659     O1667   2.239   1_655  S
In1659     O1668   2.206       .  S
In1659     O1671   2.240       .  S
C1660      O1666   1.265       .  A
C1660      O1668   1.257       .  A
O1661      C1669   1.256       .  A
O1662      C1669   1.269       .  A
C1663      O1670   1.268       .  A
C1663      O1664   1.265       .  A
C1663      C1676   1.460       .  S
C1665      O1667   1.260       .  A
C1665      O1671   1.260   1_455  A
In1672     O1674   2.226       .  S
In1672     O1675   2.264       .  S
In1672     O1683   2.243       .  S
In1672     O1677   2.204       .  S
In1672     O1679   2.246       .  S
In1672     O1680   2.300       .  S
In1672     O1681   2.205       .  S
In1672     O1684   2.157       .  S
C1673      O1679   1.262       .  A
C1673      O1681   1.257       .  A
C1673      C1699   1.446       .  S
O1674      C1682   1.260       .  A
O1675      C1682   1.262       .  A
C1676      O1683   1.269       .  A
C1676      O1677   1.263       .  A
C1678      O1680   1.270       .  A
C1678      O1684   1.254       .  A
C1682      C1859   1.525       .  S
In1685     O1687   2.196       .  S
In1685     O1688   2.306       .  S
In1685     O1696   2.261       .  S
In1685     O1690   2.205       .  S
In1685     O1692   2.237       .  S
In1685     O1693   2.294       .  S
In1685     O1694   2.219       .  S
In1685     O1697   2.192       .  S
C1686      O1692   1.262       .  A
C1686      O1694   1.260       .  A
O1687      C1695   1.255       .  A
O1688      C1695   1.270       .  A
C1689      O1696   1.263       .  A
C1689      O1690   1.257       .  A
C1689      C1702   1.457       .  S
C1691      O1693   1.270       .  A
C1691      O1697   1.259       .  A
In1698     O1700   2.174       .  S
In1698     O1701   2.304       .  S
In1698     O1709   2.245       .  S
In1698     O1703   2.194       .  S
In1698     O1705   2.242       .  S
In1698     O1706   2.256       .  S
In1698     O1707   2.200       .  S
In1698     O1710   2.221       .  S
C1699      O1705   1.262       .  A
C1699      O1707   1.258       .  A
O1700      C1708   1.255       .  A
O1701      C1708   1.270       .  A
C1702      O1709   1.269       .  A
C1702      O1703   1.264       .  A
C1704      O1706   1.262       .  A
C1704      O1710   1.258       .  A
C1704      C1863   1.529       .  S
C1711      C1712   1.411       .  A
C1711      C1716   1.412       .  A
C1711      H1718   1.084       .  S
C1712      C1713   1.429   1_554  A
C1713      C1978   1.515       .  S
C1713      C1714   1.402       .  A
C1714      C1715   1.413   1_556  A
C1714      H1977   1.080       .  S
C1715      C1716   1.434       .  A
C1716      C1717   1.511       .  S
C1717      H1721   1.110       .  S
C1717      H1722   1.110       .  S
C1717      H1723   1.100       .  S
H1719      C1972   1.080       .  S
C1720      C1971   1.515       .  S
C1720      H1982   1.110       .  S
C1720      H1725   1.107       .  S
C1720      H1726   1.111       .  S
H1724      C1978   1.110       .  S
C1727      C1728   1.422       .  A
C1727      C1732   1.419       .  A
C1727      H1734   1.075       .  S
C1729      C1736   1.511   1_455  S
C1730      C1731   1.413       .  A
C1731      C1732   1.423       .  A
C1732      C1733   1.507   1_554  S
C1733      H1737   1.105       .  S
C1733      H1996   1.100       .  S
C1733      H1739   1.108   1_556  S
C1736      H1998   1.087   1_554  S
C1736      H1741   1.089       .  S
C1736      H2000   1.111       .  S
H1738      C1991   1.100       .  S
H1740      C1994   1.087       .  S
H1742      C1994   1.111       .  S
C1743      C1744   1.419       .  A
C1743      C1748   1.414       .  A
C1743      H1750   1.082       .  S
C1744      C1745   1.420   1_554  A
C1745      C2010   1.513       .  S
C1745      C1746   1.390       .  A
C1746      C1747   1.406   1_556  A
C1746      H2009   1.066       .  S
C1747      C1748   1.426       .  A
C1748      C1749   1.511       .  S
C1749      H1753   1.111       .  S
C1749      H1754   1.109       .  S
C1749      H1755   1.106       .  S
H1751      C2004   1.066       .  S
C1752      C2003   1.513       .  S
C1752      H1756   1.101       .  S
C1752      H2015   1.107       .  S
C1752      H1758   1.110       .  S
H1757      C2010   1.107       .  S
C1759      C1760   1.416       .  A
C1759      C1764   1.408       .  A
C1760      C2019   1.437   1_554  A
C1761      C1768   1.513       .  S
C1761      C2018   1.437       .  A
C1761      C1762   1.401       .  A
C1762      C2021   1.408       .  A
C1762      H1767   1.084       .  S
C1763      C2020   1.408   1_554  A
C1763      C1764   1.427       .  A
C1765      H1769   1.110       .  S
C1765      H1770   1.098       .  S
C1768      H1772   1.100       .  S
C1768      H1773   1.111       .  S
C1768      H1774   1.100       .  S
C1775      C1776   1.421   1_556  A
C1775      C1780   1.426       .  A
C1775      H1782   1.082       .  S
C1776      C1777   1.428       .  A
C1777      C1784   1.511       .  S
C1777      C1778   1.406       .  A
C1778      C1779   1.416       .  A
C1778      H1783   1.081       .  S
C1779      C1780   1.431   1_554  A
C1780      C1781   1.506       .  S
C1781      H1785   1.111       .  S
C1781      H1786   1.102       .  S
C1781      H2045   1.108       .  S
C1784      H1788   1.085       .  S
C1784      H2047   1.094   1_554  S
C1784      H1790   1.111       .  S
H1787      C2039   1.108       .  S
H1789      C2042   1.094       .  S
C1791      C1792   1.400       .  A
C1791      C1796   1.398       .  A
C1791      H1798   1.079       .  S
C1792      C2051   1.429       .  A
C1793      C1800   1.510       .  S
C1793      C2050   1.429       .  A
C1793      C1794   1.415       .  A
C1794      C2053   1.413       .  A
C1794      H1799   1.083       .  S
C1795      C2052   1.413       .  A
C1795      C1796   1.437       .  A
C1796      C1797   1.514       .  S
C1797      H1801   1.112       .  S
C1797      H1802   1.105   1_554  S
C1797      H1803   1.096       .  S
C1800      H1804   1.108       .  S
C1800      H2063   1.107       .  S
C1800      H1806   1.111       .  S
H1805      C2058   1.107   1_554  S
In1807     O1809   2.201       .  S
In1807     O1810   2.302       .  S
In1807     O1818   2.215       .  S
In1807     O1812   2.241       .  S
In1807     O1814   2.201       .  S
In1807     O1815   2.328       .  S
In1807     O1816   2.273       .  S
In1807     O1819   2.195       .  S
C1808      O1814   1.255       .  A
C1808      O1816   1.264       .  A
C1808      C1821   1.459       .  S
O1809      C1817   1.258       .  A
O1810      C1817   1.270       .  A
C1811      O1818   1.259       .  A
C1811      O1812   1.260       .  A
C1811      C1892   1.452       .  S
C1813      O1815   1.270       .  A
C1813      O1819   1.254       .  A
C1817      C1852   1.473       .  S
In1820     O1822   2.216       .  S
In1820     O1823   2.260   1_655  S
In1820     O1831   2.219       .  S
In1820     O1825   2.256       .  S
In1820     O1827   2.195       .  S
In1820     O1828   2.302       .  S
In1820     O1829   2.256       .  S
In1820     O1832   2.182       .  S
C1821      O1827   1.262       .  A
C1821      O1829   1.268       .  A
O1822      C1830   1.258   1_655  A
O1823      C1830   1.262       .  A
C1824      O1831   1.259       .  A
C1824      O1825   1.261       .  A
C1824      C1866   1.456       .  S
C1826      O1828   1.269       .  A
C1826      O1832   1.256       .  A
C1826      C1843   1.467       .  S
In1833     O1835   2.180       .  S
In1833     O1836   2.303       .  S
In1833     O1844   2.208       .  S
In1833     O1838   2.259       .  S
In1833     O1840   2.211       .  S
In1833     O1841   2.285   1_655  S
In1833     O1842   2.264       .  S
In1833     O1845   2.227       .  S
C1834      O1840   1.264       .  A
C1834      O1842   1.269       .  A
C1834      C1847   1.468       .  S
O1835      C1843   1.255       .  A
O1836      C1843   1.270       .  A
C1837      O1844   1.257       .  A
C1837      O1838   1.262       .  A
C1837      C1918   1.454       .  S
C1839      O1841   1.263       .  A
C1839      O1845   1.259   1_455  A
In1846     O1848   2.203       .  S
In1846     O1849   2.327       .  S
In1846     O1857   2.238       .  S
In1846     O1851   2.232       .  S
In1846     O1853   2.217       .  S
In1846     O1854   2.304       .  S
In1846     O1855   2.281       .  S
In1846     O1858   2.199       .  S
C1847      O1853   1.257       .  A
C1847      O1855   1.266       .  A
O1848      C1856   1.257       .  A
O1849      C1856   1.270       .  A
C1850      O1857   1.262       .  A
C1850      O1851   1.260       .  A
C1850      C1944   1.456       .  S
C1852      O1854   1.270       .  A
C1852      O1858   1.257       .  A
C1859      C1884   1.533       .  S
C1859      C2034   1.596       .  S
C1859      C2050   1.560       .  S
C1860      C2021   1.565       .  S
C1860      C2053   1.564       .  S
C1861      C1986   1.595       .  S
C1861      C2002   1.555       .  S
C1862      C2005   1.555       .  S
C1862      C2018   1.580       .  S
C1863      C1914   1.544       .  S
C1863      C1970   1.557       .  S
C1863      C2037   1.582       .  S
C1864      C1973   1.566       .  S
C1864      C1989   1.578       .  S
In1865     O1867   2.234       .  S
In1865     O1868   2.273   1_655  S
In1865     O1876   2.247       .  S
In1865     O1870   2.224       .  S
In1865     O1872   2.262       .  S
In1865     O1873   2.295       .  S
In1865     O1874   2.213       .  S
In1865     O1877   2.158       .  S
C1866      O1872   1.264       .  A
C1866      O1874   1.257       .  A
O1867      C1875   1.261   1_655  A
O1868      C1875   1.262       .  A
C1869      O1876   1.269       .  A
C1869      O1870   1.266       .  A
C1869      C1882   1.469       .  S
C1871      O1873   1.270       .  A
C1871      O1877   1.254       .  A
C1871      C1927   1.459       .  S
In1878     O1880   2.157       .  S
In1878     O1881   2.301       .  S
In1878     O1889   2.248       .  S
In1878     O1883   2.224       .  S
In1878     O1885   2.265       .  S
In1878     O1886   2.268       .  S
In1878     O1887   2.212       .  S
In1878     O1890   2.251       .  S
C1879      O1885   1.264       .  A
C1879      O1887   1.257       .  A
C1879      C1905   1.455       .  S
O1880      C1888   1.254       .  A
O1881      C1888   1.269       .  A
C1882      O1889   1.269       .  A
C1882      O1883   1.266       .  A
C1884      O1886   1.260       .  A
C1884      O1890   1.261       .  A
C1888      C1936   1.459       .  S
In1891     O1893   2.187       .  S
In1891     O1894   2.293       .  S
In1891     O1902   2.263       .  S
In1891     O1896   2.207       .  S
In1891     O1898   2.242       .  S
In1891     O1899   2.289       .  S
In1891     O1900   2.221       .  S
In1891     O1903   2.215       .  S
C1892      O1898   1.261       .  A
C1892      O1900   1.258       .  A
O1893      C1901   1.258       .  A
O1894      C1901   1.271       .  A
C1895      O1902   1.267       .  A
C1895      O1896   1.261       .  A
C1895      C1908   1.464       .  S
C1897      O1899   1.268       .  A
C1897      O1903   1.259       .  A
C1901      C1949   1.468       .  S
In1904     O1906   2.237       .  S
In1904     O1907   2.271       .  S
In1904     O1915   2.256       .  S
In1904     O1909   2.205       .  S
In1904     O1911   2.259       .  S
In1904     O1912   2.306       .  S
In1904     O1913   2.215       .  S
In1904     O1916   2.176       .  S
C1905      O1911   1.262       .  A
C1905      O1913   1.258       .  A
O1906      C1914   1.259       .  A
O1907      C1914   1.262       .  A
C1908      O1915   1.269       .  A
C1908      O1909   1.263       .  A
C1910      O1912   1.270       .  A
C1910      O1916   1.255       .  A
C1910      C1966   1.466       .  S
In1917     O1919   2.162       .  S
In1917     O1920   2.293       .  S
In1917     O1928   2.240       .  S
In1917     O1922   2.206       .  S
In1917     O1924   2.263       .  S
In1917     O1925   2.239   1_655  S
In1917     O1926   2.206       .  S
In1917     O1929   2.240       .  S
C1918      O1924   1.265       .  A
C1918      O1926   1.257       .  A
O1919      C1927   1.256       .  A
O1920      C1927   1.269       .  A
C1921      O1928   1.268       .  A
C1921      O1922   1.265       .  A
C1921      C1934   1.460       .  S
C1923      O1925   1.260       .  A
C1923      O1929   1.260   1_455  A
In1930     O1932   2.226       .  S
In1930     O1933   2.264       .  S
In1930     O1941   2.243       .  S
In1930     O1935   2.204       .  S
In1930     O1937   2.246       .  S
In1930     O1938   2.300       .  S
In1930     O1939   2.205       .  S
In1930     O1942   2.157       .  S
C1931      O1937   1.262       .  A
C1931      O1939   1.257       .  A
C1931      C1957   1.446       .  S
O1932      C1940   1.260       .  A
O1933      C1940   1.262       .  A
C1934      O1941   1.269       .  A
C1934      O1935   1.263       .  A
C1936      O1938   1.270       .  A
C1936      O1942   1.254       .  A
In1943     O1945   2.196       .  S
In1943     O1946   2.306       .  S
In1943     O1954   2.261       .  S
In1943     O1948   2.205       .  S
In1943     O1950   2.237       .  S
In1943     O1951   2.294       .  S
In1943     O1952   2.219       .  S
In1943     O1955   2.192       .  S
C1944      O1950   1.262       .  A
C1944      O1952   1.260       .  A
O1945      C1953   1.255       .  A
O1946      C1953   1.270       .  A
C1947      O1954   1.263       .  A
C1947      O1948   1.257       .  A
C1947      C1960   1.457       .  S
C1949      O1951   1.270       .  A
C1949      O1955   1.259       .  A
In1956     O1958   2.174       .  S
In1956     O1959   2.304       .  S
In1956     O1967   2.245       .  S
In1956     O1961   2.194       .  S
In1956     O1963   2.242       .  S
In1956     O1964   2.256       .  S
In1956     O1965   2.200       .  S
In1956     O1968   2.221       .  S
C1957      O1963   1.262       .  A
C1957      O1965   1.258       .  A
O1958      C1966   1.255       .  A
O1959      C1966   1.270       .  A
C1960      O1967   1.269       .  A
C1960      O1961   1.264       .  A
C1962      O1964   1.262       .  A
C1962      O1968   1.258       .  A
C1969      C1970   1.411       .  A
C1969      C1974   1.412       .  A
C1969      H1976   1.084       .  S
C1970      C1971   1.429       .  A
C1971      C1972   1.402       .  A
C1972      C1973   1.413       .  A
C1973      C1974   1.434       .  A
C1974      C1975   1.511       .  S
C1975      H1979   1.110       .  S
C1975      H1980   1.110       .  S
C1975      H1981   1.100       .  S
C1978      H1983   1.107       .  S
C1978      H1984   1.111       .  S
C1985      C1986   1.422       .  A
C1985      C1990   1.419       .  A
C1985      H1992   1.075       .  S
C1987      C1994   1.511   1_455  S
C1988      C1989   1.413       .  A
C1989      C1990   1.423       .  A
C1990      C1991   1.507       .  S
C1991      H1995   1.105       .  S
C1991      H1997   1.108       .  S
C1994      H1999   1.089       .  S
C2001      C2002   1.419       .  A
C2001      C2006   1.414       .  A
C2001      H2008   1.082       .  S
C2002      C2003   1.420       .  A
C2003      C2004   1.390       .  A
C2004      C2005   1.406       .  A
C2005      C2006   1.426       .  A
C2006      C2007   1.511       .  S
C2007      H2011   1.111       .  S
C2007      H2012   1.109       .  S
C2007      H2013   1.106       .  S
C2010      H2014   1.101       .  S
C2010      H2016   1.110       .  S
C2017      C2018   1.416       .  A
C2017      C2022   1.408       .  A
C2019      C2026   1.513       .  S
C2019      C2020   1.401       .  A
C2020      H2025   1.084       .  S
C2021      C2022   1.427       .  A
C2023      H2027   1.110       .  S
C2023      H2028   1.098       .  S
C2026      H2030   1.100       .  S
C2026      H2031   1.111       .  S
C2026      H2032   1.100       .  S
C2033      C2034   1.421       .  A
C2033      C2038   1.426       .  A
C2033      H2040   1.082       .  S
C2034      C2035   1.428       .  A
C2035      C2042   1.511       .  S
C2035      C2036   1.406       .  A
C2036      C2037   1.416       .  A
C2036      H2041   1.081       .  S
C2037      C2038   1.431       .  A
C2038      C2039   1.506       .  S
C2039      H2043   1.111       .  S
C2039      H2044   1.102       .  S
C2042      H2046   1.085       .  S
C2042      H2048   1.111       .  S
C2049      C2050   1.400       .  A
C2049      C2054   1.398       .  A
C2049      H2056   1.079       .  S
C2051      C2058   1.510   1_554  S
C2051      C2052   1.415       .  A
C2052      H2057   1.083       .  S
C2053      C2054   1.437       .  A
C2054      C2055   1.514       .  S
C2055      H2059   1.112       .  S
C2055      H2060   1.105       .  S
C2055      H2061   1.096       .  S
C2058      H2062   1.108       .  S
C2058      H2064   1.111       .  S
