geometry optimzed in LAMMPS
_audit_creation_date              2020-11-30 
_audit_creation_method            'lammps2cif' 
_symmetry_space_group_name_H-M    'P1' 
_symmetry_Int_Tables_number       1 
_symmetry_cell_setting            triclinic 
loop_ 
_symmetry_equiv_pos_as_xyz 
  x,y,z 
_cell_length_a                    33.513237510077914 
_cell_length_b                    33.91403627490497 
_cell_length_c                    23.296734483162687 
_cell_angle_alpha                 89.79263884517891 
_cell_angle_beta                  90.35574178028898 
_cell_angle_gamma                 120.54950678720729 
loop_ 
_atom_site_label 
_atom_site_type_symbol 
_atom_site_fract_x 
_atom_site_fract_y 
_atom_site_fract_z 
_atom_site_charge 
C1          C  0.68290919  0.65980707  0.49678288     0.00890
C2          C  0.65591600  0.67863436  0.50456829     0.00890
C3          C  0.98173843  0.64536426  0.50401645     0.00890
C4          C  0.02866821  0.66754794  0.49811122     0.00890
C5          C  0.97907905  0.34103501  0.49287398     0.00890
C6          C  0.02667020  0.36621133  0.49569877     0.00890
C7          C  0.78185278  0.23589694  0.73752569     0.03460
C8          C  0.82477238  0.26309534  0.70977782    -0.12690
C9          C  0.83709589  0.24588669  0.66239878     0.00960
C10         C  0.80574108  0.20128051  0.64325203    -0.11220
C11         C  0.76287514  0.17425859  0.67002767     0.03450
C12         C  0.75086292  0.19176011  0.71657827    -0.10640
H13         H  0.84853546  0.29738426  0.72518488     0.09040
H14         H  0.81369816  0.18812384  0.60548057     0.06570
H15         H  0.71697391  0.17122710  0.73575023     0.06420
C16         C  0.78026011  0.22844995  0.26505037     0.03460
C17         C  0.82820669  0.25423203  0.27621508    -0.12690
C18         C  0.84877990  0.23869076  0.31560908     0.00960
C19         C  0.82238849  0.19431903  0.33706520    -0.11220
C20         C  0.77362441  0.17035904  0.33356359     0.03450
C21         C  0.75280430  0.18762418  0.29622874    -0.10640
H22         H  0.84965360  0.28716834  0.25598407     0.09040
H23         H  0.83969311  0.18108971  0.36310809     0.06570
H24         H  0.71556514  0.17100074  0.29279968     0.06420
C25         C  0.67886843  0.03189825  0.51172481     0.00890
C26         C  0.65400661  0.98550328  0.50568493     0.00890
C27         C  0.22871760  0.45779190  0.73066266     0.03460
C28         C  0.18328160  0.43866507  0.70862224    -0.12690
C29         C  0.16917995  0.41064922  0.65947821     0.00960
C30         C  0.20064602  0.39975010  0.63464142    -0.11220
C31         C  0.24544757  0.41710439  0.65723388     0.03450
C32         C  0.25956314  0.44669573  0.70451041    -0.10640
H33         H  0.15883761  0.44548310  0.72994828     0.09040
H34         H  0.19096745  0.37883033  0.59626692     0.06570
H35         H  0.29467660  0.46129140  0.72060447     0.06420
C36         C  0.22893088  0.45408742  0.26519405     0.03460
C37         C  0.25278261  0.43425244  0.29114478    -0.12690
C38         C  0.22910896  0.39461559  0.32587284     0.00960
C39         C  0.18066148  0.37416936  0.32885189    -0.11220
C40         C  0.15974544  0.39976807  0.31615725     0.03450
C41         C  0.18261713  0.43777844  0.28048397    -0.10640
H42         H  0.28979471  0.45116506  0.28524503     0.09040
H43         H  0.15918893  0.34122702  0.34840222     0.06570
H44         H  0.16461037  0.45508167  0.26665495     0.06420
C45         C  0.35719551  0.33779316  0.49582120     0.00890
C46         C  0.33471041  0.36174278  0.49882948     0.00890
C47         C  0.46040473  0.23393494  0.72486230     0.03460
C48         C  0.44385953  0.26039788  0.69871546    -0.12690
C49         C  0.41481605  0.24400945  0.65012783     0.00960
C50         C  0.40191837  0.20024980  0.62883774    -0.11220
C51         C  0.41792715  0.17351593  0.65494581     0.03450
C52         C  0.44734158  0.19057675  0.70248612    -0.10640
H53         H  0.45402081  0.29383271  0.71584406     0.09040
H54         H  0.38044994  0.18731056  0.59066361     0.06570
H55         H  0.45988186  0.16989708  0.72224002     0.06420
C56         C  0.78081204  0.55048596  0.73259706     0.03460
C57         C  0.75652283  0.56916098  0.70457190    -0.12690
C58         C  0.77841347  0.60404461  0.66239307     0.00960
C59         C  0.82590625  0.62011699  0.65231927    -0.11220
C60         C  0.84782803  0.59725336  0.67345519     0.03450
C61         C  0.82506142  0.56225686  0.71325936    -0.10640
H62         H  0.72107324  0.55589120  0.71662345     0.09040
H63         H  0.84665226  0.64938613  0.62557822     0.06570
H64         H  0.84215084  0.54469687  0.72983265     0.06420
O65         O  0.73070345  0.39726958  0.07943859    -0.85020
O66         O  0.73653696  0.32286189  0.05122566    -0.82070
C67         C  0.70780644  0.29139268  0.08402134     0.98440
O68         O  0.66487571  0.27338277  0.07609469    -0.82100
O69         O  0.58352885  0.26871295  0.04756460    -0.84750
C70         C  0.58153667  0.29592332  0.08301740     1.02970
O71         O  0.60731697  0.33859720  0.07774413    -0.77510
O72         O  0.68428799  0.42087306  0.04993119    -0.77700
C73         C  0.71413193  0.42291704  0.08539468     1.02920
O74         O  0.73531558  0.42269426  0.95969023    -0.85020
O75         O  0.73296054  0.34361615  0.93097576    -0.82080
C76         C  0.71727572  0.30151931  0.92368565     0.98460
O77         O  0.68704176  0.27260534  0.95756100    -0.82110
O78         O  0.61026489  0.27677491  0.92784252    -0.84720
C79         C  0.58377244  0.29257174  0.92103811     1.02930
O80         O  0.58299073  0.31933735  0.95815192    -0.77540
O81         O  0.66412244  0.39658760  0.93013241    -0.77680
C82         C  0.70696092  0.42330047  0.92382144     1.02890
Cr83       Cr  0.72944993  0.36929167  0.00522647     1.93740
Cr84       Cr  0.63843222  0.27724092  0.00231299     1.93210
Cr85       Cr  0.63699597  0.36678193  0.00413435     1.39100
O86         O  0.66833286  0.33771720  0.00431868    -1.22770
C87         C  0.77573290  0.55561136  0.26939991     0.03460
C88         C  0.74579662  0.57078295  0.28673610    -0.12690
C89         C  0.76093633  0.60679912  0.32540709     0.00960
C90         C  0.80637903  0.62790389  0.34635506    -0.11220
C91         C  0.83353678  0.60740399  0.33956558     0.03450
C92         C  0.81841706  0.57192325  0.29851578    -0.10640
H93         H  0.71068725  0.55461879  0.27018819     0.09040
H94         H  0.81879304  0.65855690  0.37166335     0.06570
H95         H  0.83914113  0.55665138  0.28915652     0.06420
C96         C  0.44691801  0.23145566  0.26526726     0.03460
C97         C  0.42850090  0.25890241  0.28137758    -0.12690
C98         C  0.39247885  0.24289594  0.32123515     0.00960
C99         C  0.37374987  0.19836301  0.34243223    -0.11220
C100        C  0.39694693  0.17379910  0.33580984     0.03450
C101        C  0.43304131  0.19022882  0.29515089    -0.10640
H102        H  0.44279515  0.29304821  0.26372112     0.09040
H103        H  0.34322159  0.18474942  0.36869145     0.06570
H104        H  0.45063343  0.17159008  0.28661144     0.06420
C105        C  0.24003507  0.77635139  0.72447886     0.03460
C106        C  0.26909698  0.82012018  0.70057951    -0.12690
C107        C  0.25500116  0.83400722  0.65163792     0.00960
C108        C  0.21237356  0.80361249  0.62618211    -0.11220
C109        C  0.18183981  0.76120944  0.65109129     0.03450
C110        C  0.19606160  0.74727896  0.69994662    -0.10640
H111        H  0.30217475  0.84348135  0.72039514     0.09040
H112        H  0.20274700  0.81333982  0.58637983     0.06570
H113        H  0.17318421  0.71393264  0.71856274     0.06420
C114        C  0.22975211  0.78044020  0.26491352     0.03460
C115        C  0.18545338  0.75199057  0.28814566    -0.12690
C116        C  0.16974846  0.76680339  0.33434483     0.00960
C117        C  0.19835665  0.81100989  0.35634883    -0.11220
C118        C  0.24256801  0.84031433  0.33356263     0.03450
C119        C  0.25782609  0.82489930  0.28722393    -0.10640
H120        H  0.16331670  0.71805437  0.27062000     0.09040
H121        H  0.18714237  0.82166827  0.39373955     0.06570
H122        H  0.29199744  0.84694317  0.26955856     0.06420
O123        O  0.42731648  0.74059279  0.95819805    -0.85020
O124        O  0.34513711  0.73377607  0.92805415    -0.82070
C125        C  0.30210005  0.71652786  0.92101509     0.98440
O126        O  0.27389757  0.68734360  0.95647023    -0.82100
O127        O  0.27720919  0.61040222  0.93049085    -0.84750
C128        C  0.29443382  0.58531840  0.92285629     1.02970
O129        O  0.32599080  0.58856075  0.95622230    -0.77510
O130        O  0.40320970  0.67079730  0.92803512    -0.77700
C131        C  0.42949796  0.71339834  0.92313389     1.02920
O132        O  0.40155953  0.73433921  0.07730642    -0.85020
O133        O  0.32494021  0.73935645  0.04623401    -0.82080
C134        C  0.29553901  0.71219589  0.08204104     0.98460
O135        O  0.27971536  0.66978843  0.07747547    -0.82110
O136        O  0.27525761  0.58935278  0.05121384    -0.84720
C137        C  0.30460598  0.58767983  0.08401794     1.02930
O138        O  0.34738232  0.61250530  0.07540647    -0.77540
O139        O  0.42799016  0.69059176  0.04735802    -0.77680
C140        C  0.42828323  0.71863623  0.08338736     1.02890
Cr141      Cr  0.37256261  0.73254184  0.00255819     1.93740
Cr142      Cr  0.28108777  0.64144503  0.00381458     1.93210
Cr143      Cr  0.37367085  0.64278119  0.00171000     1.39100
O144        O  0.34234195  0.67206229  0.00256114    -1.22770
C145        C  0.56171801  0.78049213  0.73818833     0.03460
C146        C  0.57577686  0.75148851  0.71398171    -0.12690
C147        C  0.60484086  0.76559544  0.66620802     0.00960
C148        C  0.61654577  0.80699149  0.63956489    -0.11220
C149        C  0.60336246  0.83678594  0.66263112     0.03450
C150        C  0.57663641  0.82367426  0.71280991    -0.10640
H151        H  0.56369941  0.71767815  0.73137925     0.09040
H152        H  0.63548566  0.81554917  0.59954811     0.06570
H153        H  0.56756285  0.84700024  0.73218490     0.06420
C154        C  0.55670860  0.78526252  0.27297369     0.03460
C155        C  0.57333305  0.75898296  0.29940673    -0.12690
C156        C  0.60236285  0.77583251  0.34799345     0.00960
C157        C  0.61417226  0.81919105  0.36925594    -0.11220
C158        C  0.59917584  0.84620753  0.34204092     0.03450
C159        C  0.56977652  0.82890115  0.29428249    -0.10640
H160        H  0.56322179  0.72545759  0.28245175     0.09040
H161        H  0.63392418  0.83173635  0.40873102     0.06570
H162        H  0.55678309  0.84904513  0.27411272     0.06420
C163        C  0.34227390  0.98320540  0.49581469     0.00890
C164        C  0.36263654  0.02956614  0.50009457     0.00890
C165        C  0.46402781  0.73170662  0.87728080    -0.05140
C166        C  0.49967815  0.72169463  0.87679571    -0.32570
C167        C  0.53285611  0.73867028  0.83308841     0.36680
C168        C  0.52946776  0.76476437  0.78782153    -0.05500
C169        C  0.49368145  0.77492498  0.78917056    -0.32470
C170        C  0.46189878  0.75951423  0.83412414     0.36590
H171        H  0.50232087  0.70139708  0.91102599     0.16960
O172        O  0.56966277  0.73160843  0.83660251    -0.59960
H173        H  0.48978936  0.79437507  0.75486545     0.16970
O174        O  0.42776506  0.77038978  0.83435172    -0.60060
H175        H  0.44126814  0.79994240  0.85513765     0.43970
H176        H  0.55625394  0.69808552  0.83249763     0.43920
C177        C  0.52405386  0.76653693  0.22435760    -0.05140
C178        C  0.47649396  0.74708814  0.23433870    -0.32570
C179        C  0.44492744  0.73106347  0.18854071     0.36680
C180        C  0.46088522  0.73403068  0.13205772    -0.05500
C181        C  0.50839790  0.75260839  0.12221023    -0.32470
C182        C  0.54002005  0.76913493  0.16802200     0.36590
H183        H  0.46392915  0.74465515  0.27771153     0.16960
O184        O  0.39842735  0.71109298  0.19946146    -0.59960
H185        H  0.52104765  0.75531464  0.07883368     0.16970
O186        O  0.58652437  0.78926373  0.15722910    -0.60060
H187        H  0.59340496  0.76414439  0.16024041     0.43970
H188        H  0.39234229  0.73678495  0.20104850     0.43920
C189        C  0.27358967  0.88473949  0.36294741    -0.05140
C190        C  0.25561239  0.91218642  0.38107753    -0.32570
C191        C  0.28008159  0.94817572  0.42002096     0.36680
C192        C  0.32335919  0.95742209  0.44131306    -0.05500
C193        C  0.34317925  0.93288092  0.41921868    -0.32470
C194        C  0.31869841  0.89667113  0.38071072     0.36590
H195        H  0.22120035  0.90393172  0.36767072     0.16960
O196        O  0.25947475  0.97112930  0.44118387    -0.59960
H197        H  0.37664376  0.93987855  0.43475498     0.16970
O198        O  0.33772236  0.87089058  0.36474796    -0.60060
H199        H  0.32749496  0.84653710  0.39427663     0.43970
H200        H  0.26745006  0.99634762  0.41355381     0.43920
C201        C  0.27903832  0.73015286  0.12860027    -0.05140
C202        C  0.25926301  0.70372405  0.17816566    -0.32570
C203        C  0.24384009  0.71996116  0.22301036     0.36680
C204        C  0.24715585  0.76306639  0.21856899    -0.05500
C205        C  0.26727674  0.78968039  0.16931156    -0.32470
C206        C  0.28298576  0.77358969  0.12457095     0.36590
H207        H  0.25639770  0.67056743  0.18267835     0.16960
O208        O  0.22626917  0.69365626  0.27142800    -0.59960
H209        H  0.27007942  0.82281864  0.16500900     0.16970
O210        O  0.30156195  0.80048115  0.07681420    -0.60060
H211        H  0.27522892  0.79046898  0.04967134     0.43970
H212        H  0.25273581  0.70528295  0.29864975     0.43920
C213        C  0.32732797  0.95364580  0.54781484    -0.05140
C214        C  0.28390131  0.94105334  0.57073945    -0.32570
C215        C  0.26266533  0.90547869  0.61023751     0.36680
C216        C  0.28354494  0.87979841  0.62520721    -0.05500
C217        C  0.32863231  0.89444944  0.60602176    -0.32470
C218        C  0.35065117  0.93131795  0.56728624     0.36590
H219        H  0.26496476  0.95704907  0.55530641     0.16960
O220        O  0.21963620  0.89364040  0.63050547    -0.59960
H221        H  0.34536911  0.87535774  0.61769214     0.16970
O222        O  0.39397257  0.94422244  0.54699717    -0.60060
H223        H  0.39076913  0.91707820  0.52671823     0.43970
H224        H  0.22531701  0.90782061  0.66909014     0.43920
C225        C  0.25566895  0.76090428  0.77487593    -0.05140
C226        C  0.22656321  0.74173351  0.82264485    -0.32570
C227        C  0.24095978  0.72706483  0.87067415     0.36680
C228        C  0.28502974  0.73120146  0.87127978    -0.05500
C229        C  0.31355893  0.74966262  0.82302817    -0.32470
C230        C  0.29938560  0.76452172  0.77528429     0.36590
H231        H  0.19278272  0.73869597  0.82303197     0.16960
O232        O  0.21180848  0.70912774  0.91675128    -0.59960
H233        H  0.34681343  0.75190733  0.82172079     0.16970
O234        O  0.32748897  0.78028943  0.72797312    -0.60060
H235        H  0.35362052  0.81087370  0.73896880     0.43970
H236        H  0.22060705  0.73544811  0.94271955     0.43920
C237        C  0.36544694  0.06027037  0.45156382    -0.05140
C238        C  0.35277944  0.09282106  0.46412013    -0.32570
C239        C  0.36620966  0.13090245  0.42984922     0.36680
C240        C  0.38527873  0.13378597  0.37479747    -0.05500
C241        C  0.39489928  0.09910399  0.35959140    -0.32470
C242        C  0.38696970  0.06371341  0.39841157     0.36590
H243        H  0.33583724  0.09149826  0.50391456     0.16960
O244        O  0.36381263  0.16658085  0.45369295    -0.59960
H245        H  0.41014736  0.09995628  0.31852051     0.16970
O246        O  0.40358263  0.03523542  0.38582092    -0.60060
H247        H  0.38575900  0.01747836  0.35167063     0.43970
H248        H  0.39484639  0.18688808  0.47084483     0.43920
C249        C  0.48131373  0.24681103  0.21814291    -0.05140
C250        C  0.52326764  0.24734450  0.22551907    -0.32570
C251        C  0.55619868  0.26299057  0.18143574     0.36680
C252        C  0.54713626  0.27789750  0.12915752    -0.05500
C253        C  0.50527108  0.27698706  0.12144348    -0.32470
C254        C  0.47232809  0.26129175  0.16519433     0.36590
H255        H  0.53089060  0.23648677  0.26584348     0.16960
O256        O  0.59714994  0.26378534  0.18985198    -0.59960
H257        H  0.49806542  0.28838359  0.08122900     0.16970
O258        O  0.43120802  0.25989684  0.15556785    -0.60060
H259        H  0.40931272  0.22818948  0.14258687     0.43970
H260        H  0.61926989  0.29506736  0.20401579     0.43920
C261        C  0.76124177  0.52207551  0.22181760    -0.05140
C262        C  0.76679830  0.48389630  0.22655022    -0.32570
C263        C  0.75217409  0.45156366  0.18230665     0.36680
C264        C  0.73084035  0.45670361  0.13262349    -0.05500
C265        C  0.72578550  0.49512852  0.12775423    -0.32470
C266        C  0.74100983  0.52776449  0.17146284     0.36590
H267        H  0.78182682  0.47863342  0.26502251     0.16960
O268        O  0.75744950  0.41429279  0.18908541    -0.59960
H269        H  0.71054315  0.50038221  0.08946056     0.16970
O270        O  0.73788301  0.56624120  0.16346026    -0.60060
H271        H  0.70431259  0.55558051  0.16483288     0.43970
H272        H  0.79004503  0.42521406  0.17839450     0.43920
C273        C  0.76073658  0.51870434  0.78225213    -0.05140
C274        C  0.71513926  0.48144894  0.78014914    -0.32570
C275        C  0.69677119  0.45049121  0.82611999     0.36680
C276        C  0.72428415  0.45626280  0.87521948    -0.05500
C277        C  0.76950447  0.49404859  0.87757144    -0.32470
C278        C  0.78766995  0.52511979  0.83199910     0.36590
H279        H  0.69395940  0.47571206  0.74226855     0.16960
O280        O  0.65257799  0.41373559  0.82143657    -0.59960
H281        H  0.79101280  0.49985423  0.91515196     0.16970
O282        O  0.83128421  0.56279559  0.83741528    -0.60060
H283        H  0.85285810  0.55091067  0.83549732     0.43970
H284        H  0.63212684  0.42526729  0.83395397     0.43920
C285        C  0.49279259  0.25165881  0.77431007    -0.05140
C286        C  0.53275360  0.24819566  0.77338077    -0.32570
C287        C  0.56259323  0.26143249  0.82063137     0.36680
C288        C  0.55305473  0.27905801  0.87009919    -0.05500
C289        C  0.51376577  0.28380281  0.87044776    -0.32470
C290        C  0.48368667  0.27022123  0.82307658     0.36590
H291        H  0.54082530  0.23489824  0.73575565     0.16960
O292        O  0.60165732  0.25812750  0.81723977    -0.59960
H293        H  0.50570677  0.29714509  0.90801895     0.16970
O294        O  0.44416453  0.27271941  0.82618788    -0.60060
H295        H  0.45464019  0.30570765  0.82220254     0.43970
H296        H  0.59123562  0.22572615  0.82637964     0.43920
C297        C  0.37891503  0.05353449  0.55661216    -0.05140
C298        C  0.34646319  0.05483224  0.59344851    -0.32570
C299        C  0.35951660  0.09256886  0.62921327     0.36680
C300        C  0.40571444  0.12881042  0.62987769    -0.05500
C301        C  0.43928266  0.12443604  0.59963605    -0.32470
C302        C  0.42605350  0.08720990  0.56271333     0.36590
H303        H  0.30993396  0.03056805  0.58826289     0.16960
O304        O  0.32609493  0.09594651  0.65871797    -0.59960
H305        H  0.47513256  0.15192275  0.60052921     0.16970
O306        O  0.45869559  0.08629104  0.52839242    -0.60060
H307        H  0.46368609  0.10761403  0.49631375     0.43970
H308        H  0.32667443  0.08484809  0.69797482     0.43920
C309        C  0.39824677  0.27211707  0.62023384    -0.05140
C310        C  0.35244035  0.25043252  0.59969325    -0.32570
C311        C  0.33753052  0.27319324  0.56306630     0.36680
C312        C  0.36815743  0.31904135  0.54741917    -0.05500
C313        C  0.41280961  0.34209555  0.57138531    -0.32470
C314        C  0.42818589  0.31894792  0.60716473     0.36590
H315        H  0.32857342  0.21476127  0.60966924     0.16960
O316        O  0.29438311  0.24911424  0.53814744    -0.59960
H317        H  0.43695165  0.37712528  0.55897994     0.16970
O318        O  0.47379379  0.34105048  0.62395849    -0.60060
H319        H  0.47661970  0.36288193  0.65415883     0.43970
H320        H  0.27191048  0.23827290  0.57021216     0.43920
C321        C  0.36504039  0.32117715  0.44028378    -0.05140
C322        C  0.32783429  0.28507180  0.41078131    -0.32570
C323        C  0.33587324  0.26183104  0.36673004     0.36680
C324        C  0.38169705  0.27477058  0.35179158    -0.05500
C325        C  0.41854277  0.31393088  0.37740858    -0.32470
C326        C  0.41048154  0.33699741  0.42126766     0.36590
H327        H  0.29259953  0.27304788  0.42424926     0.16960
O328        O  0.29898196  0.22568360  0.33959486    -0.59960
H329        H  0.45404547  0.32448559  0.36687057     0.16970
O330        O  0.44753904  0.37324271  0.44779280    -0.60060
H331        H  0.45247438  0.40072804  0.42652130     0.43970
H332        H  0.28228809  0.20231060  0.36974326     0.43920
C333        C  0.25472215  0.37912275  0.36516652    -0.05140
C334        C  0.30201589  0.39390120  0.35560587    -0.32570
C335        C  0.32907908  0.38803272  0.39744179     0.36680
C336        C  0.30843791  0.36455844  0.44857137    -0.05500
C337        C  0.26093216  0.34592904  0.45569322    -0.32470
C338        C  0.23452540  0.35405913  0.41661698     0.36590
H339        H  0.31916790  0.41174092  0.31673158     0.16960
O340        O  0.37599905  0.40820848  0.38980033    -0.59960
H341        H  0.24414761  0.32699088  0.49429801     0.16970
O342        O  0.19036410  0.34089561  0.43333759    -0.60060
H343        H  0.17261275  0.30699737  0.43037174     0.43970
H344        H  0.37987517  0.39224438  0.35659602     0.43920
C345        C  0.28845249  0.55567161  0.13237728    -0.05140
C346        C  0.26308106  0.56083095  0.17615271    -0.32570
C347        C  0.24563790  0.52961444  0.22174548     0.36680
C348        C  0.25240275  0.49173494  0.22273455    -0.05500
C349        C  0.27952474  0.48792926  0.17970515    -0.32470
C350        C  0.29804775  0.51996883  0.13522929     0.36590
H351        H  0.25705712  0.58935180  0.17516588     0.16960
O352        O  0.22381104  0.53741857  0.26620183    -0.59960
H353        H  0.28515084  0.45917022  0.17945441     0.16970
O354        O  0.32323681  0.51463934  0.09297138    -0.60060
H355        H  0.35572917  0.53130307  0.10702065     0.43970
H356        H  0.19569549  0.53561920  0.24925687     0.43920
C357        C  0.32574472  0.37869862  0.55383453    -0.05140
C358        C  0.29306740  0.34721903  0.59273062    -0.32570
C359        C  0.26892030  0.36023863  0.62971383     0.36680
C360        C  0.27770045  0.40545453  0.62896865    -0.05500
C361        C  0.31383964  0.43812780  0.59493008    -0.32470
C362        C  0.33751524  0.42495717  0.55720034     0.36590
H363        H  0.28223110  0.31140950  0.59001553     0.16960
O364        O  0.23407133  0.32763055  0.66298532    -0.59960
H365        H  0.32120846  0.47315515  0.59420200     0.16970
O366        O  0.36958273  0.45677714  0.52031237    -0.60060
H367        H  0.35130826  0.46108918  0.48987489     0.43970
H368        H  0.24840551  0.33030319  0.70122044     0.43920
C369        C  0.24437017  0.48984912  0.78051708    -0.05140
C370        C  0.26996856  0.48506175  0.82523134    -0.32570
C371        C  0.28650273  0.51563477  0.87166956     0.36680
C372        C  0.27714830  0.55176119  0.87464517    -0.05500
C373        C  0.25132814  0.55635230  0.83000198    -0.32470
C374        C  0.23515452  0.52602748  0.78333186     0.36590
H375        H  0.27712608  0.45730591  0.82431517     0.16960
O376        O  0.31081057  0.50908164  0.91449582    -0.59960
H377        H  0.24429661  0.58420021  0.83053511     0.16970
O378        O  0.21274024  0.53371765  0.73905969    -0.60060
H379        H  0.18190867  0.52552865  0.75436254     0.43970
H380        H  0.34321571  0.52416653  0.90062974     0.43920
C381        C  0.61202772  0.89076449  0.36811371    -0.05140
C382        C  0.65910326  0.92429896  0.37350269    -0.32570
C383        C  0.67373623  0.95971381  0.41391973     0.36680
C384        C  0.64075227  0.96139405  0.44941413    -0.05500
C385        C  0.59339652  0.93096186  0.43894032    -0.32470
C386        C  0.57890458  0.89586863  0.39852285     0.36590
H387        H  0.68481214  0.92088355  0.34957112     0.16960
O388        O  0.72015002  0.99094118  0.42076690    -0.59960
H389        H  0.56762836  0.93201309  0.46568562     0.16970
O390        O  0.53274327  0.86349163  0.39435948    -0.60060
H391        H  0.52051978  0.87458185  0.36332217     0.43970
H392        H  0.73588425  0.97307798  0.42592872     0.43920
C393        C  0.61824545  0.88098026  0.63264683    -0.05140
C394        C  0.66238574  0.90366707  0.60768976    -0.32570
C395        C  0.67416024  0.93796853  0.56711244     0.36680
C396        C  0.64400932  0.95442037  0.55546323    -0.05500
C397        C  0.60127533  0.93471614  0.58382596    -0.32470
C398        C  0.58787241  0.89762661  0.62162726     0.36590
H399        H  0.68691847  0.89250446  0.61640792     0.16960
O400        O  0.71508254  0.95469870  0.53791074    -0.59960
H401        H  0.57707779  0.94602176  0.57369776     0.16970
O402        O  0.54370079  0.87541863  0.64301754    -0.60060
H403        H  0.54396293  0.89537153  0.67421434     0.43970
H404        H  0.71126503  0.92897308  0.51371400     0.43920
C405        C  0.75895299  0.24473021  0.22184657    -0.05140
C406        C  0.72557609  0.21317502  0.18335136    -0.32570
C407        C  0.70811252  0.22793872  0.13877220     0.36680
C408        C  0.72466755  0.27492499  0.13137181    -0.05500
C409        C  0.75709174  0.30641623  0.17024350    -0.32470
C410        C  0.77326728  0.29163751  0.21614303     0.36590
H411        H  0.71393522  0.17704579  0.18676609     0.16960
O412        O  0.67591003  0.19632119  0.10162985    -0.59960
H413        H  0.76923581  0.34254466  0.16559720     0.16970
O414        O  0.80258127  0.32335813  0.25541881    -0.60060
H415        H  0.78247879  0.32128759  0.28773901     0.43970
H416        H  0.69409301  0.19472544  0.06922157     0.43920
C417        C  0.70187980  0.06413919  0.46232894    -0.05140
C418        C  0.67840651  0.06253665  0.41116022    -0.32570
C419        C  0.70091482  0.09550491  0.36741226     0.36680
C420        C  0.74666741  0.13257499  0.37616851    -0.05500
C421        C  0.76832557  0.13445377  0.42878563    -0.32470
C422        C  0.74808013  0.09974624  0.46900762     0.36590
H423        H  0.64268150  0.03586073  0.40486893     0.16960
O424        O  0.67837620  0.09016021  0.31616932    -0.59960
H425        H  0.80190866  0.16310632  0.44015620     0.16970
O426        O  0.77494926  0.10016222  0.51390744    -0.60060
H427        H  0.78381353  0.12845859  0.53576681     0.43970
H428        H  0.65287274  0.09600749  0.32470162     0.43920
C429        C  0.72983746  0.12901559  0.64559862    -0.05140
C430        C  0.74112078  0.09458384  0.64648910    -0.32570
C431        C  0.71932558  0.05726944  0.60888437     0.36680
C432        C  0.68609300  0.05474618  0.56896956    -0.05500
C433        C  0.67042803  0.08594567  0.57426007    -0.32470
C434        C  0.69234899  0.12319339  0.61186025     0.36590
H435        H  0.77019656  0.09902003  0.67218902     0.16960
O436        O  0.73757220  0.02939633  0.60385128    -0.59960
H437        H  0.64490341  0.08454801  0.54423782     0.16970
O438        O  0.68014636  0.15615331  0.61090997    -0.60060
H439        H  0.69941864  0.17792704  0.58041463     0.43970
H440        H  0.73050709  0.01236118  0.64064680     0.43920
C441        C  0.76796014  0.25379509  0.78682966    -0.05140
C442        C  0.77273023  0.29731953  0.78355238    -0.32570
C443        C  0.75652845  0.31339202  0.82769135     0.36680
C444        C  0.73525036  0.28585201  0.87645221    -0.05500
C445        C  0.73109763  0.24259655  0.87998368    -0.32470
C446        C  0.74761675  0.22673644  0.83612816     0.36590
H447        H  0.78785365  0.31844931  0.74584202     0.16860
O448        O  0.76088096  0.35568523  0.82203080    -0.59960
H449        H  0.71541301  0.22106587  0.91725169     0.16970
O450        O  0.74380834  0.18469801  0.84205069    -0.60060
H451        H  0.77394764  0.19112185  0.85830870     0.43970
H452        H  0.73152096  0.34984422  0.80386021     0.43920
C453        C  0.04894044  0.37024703  0.55316987    -0.05140
C454        C  0.06860957  0.41187348  0.58306423    -0.32570
C455        C  0.10566010  0.42437346  0.62159393     0.36680
C456        C  0.12301742  0.39454927  0.63137836    -0.05500
C457        C  0.09901125  0.35055028  0.60691410    -0.32470
C458        C  0.06292226  0.33860349  0.56750174     0.36590
H459        H  0.05892049  0.43687951  0.57155753     0.16960
O460        O  0.12819137  0.46795327  0.64342154    -0.59960
H461        H  0.11071796  0.32652546  0.61469731     0.16970
O462        O  0.04540141  0.29814568  0.53798674    -0.60060
H463        H  0.06700721  0.30471775  0.50561048     0.43970
H464        H  0.10809212  0.46756722  0.67475268     0.43920
C465        C  0.06051945  0.38355740  0.44469091    -0.05140
C466        C  0.10825325  0.40243077  0.45711673    -0.32570
C467        C  0.14039078  0.40962236  0.41498195     0.36680
C468        C  0.12584949  0.39757277  0.35800026    -0.05500
C469        C  0.08093315  0.38626067  0.34272549    -0.32470
C470        C  0.04924109  0.38212536  0.38513258     0.36590
H471        H  0.12207146  0.41143344  0.50004137     0.16960
O472        O  0.18662757  0.43004561  0.42929458    -0.59960
H473        H  0.07088973  0.38213320  0.29786983     0.16970
O474        O  0.01071173  0.38251334  0.36675662    -0.60060
H475        H  0.01945926  0.41517854  0.36731087     0.43970
H476        H  0.18882372  0.41238272  0.46193473     0.43920
C477        C  0.95248576  0.32065265  0.43920385    -0.05140
C478        C  0.95371828  0.28398829  0.41324684    -0.32570
C479        C  0.92373438  0.25986565  0.36761333     0.36680
C480        C  0.89106398  0.27158066  0.34820028    -0.05500
C481        C  0.89242404  0.31040095  0.37159222    -0.32470
C482        C  0.92253424  0.33464921  0.41674462     0.36590
H483        H  0.97686268  0.27308913  0.42982236     0.16960
O484        O  0.92478804  0.22326027  0.34459120    -0.59960
H485        H  0.86770434  0.32016128  0.35777888     0.16970
O486        O  0.92216189  0.37180432  0.43891278    -0.60060
H487        H  0.94287008  0.39785636  0.41377513     0.43970
H488        H  0.94400993  0.23537077  0.30960627     0.43920
C489        C  0.95024024  0.32212979  0.54579748    -0.05140
C490        C  0.94015792  0.27899157  0.56581283    -0.32570
C491        C  0.90673014  0.25597445  0.60814058     0.36680
C492        C  0.88052377  0.27472884  0.62922582    -0.05500
C493        C  0.89300183  0.31943586  0.61247562    -0.32470
C494        C  0.92784079  0.34330701  0.57124968     0.36590
H495        H  0.95698831  0.26216826  0.54686627     0.16960
O496        O  0.89863453  0.21417441  0.62693454    -0.59960
H497        H  0.87406771  0.33500131  0.62893922     0.16970
O498        O  0.93948673  0.38693955  0.55551532    -0.60060
H499        H  0.91010594  0.38546313  0.54450430     0.43970
H500        H  0.91662557  0.22066398  0.66314666     0.43920
C501        C  0.05342193  0.68498334  0.44286175    -0.05140
C502        C  0.08152347  0.66797625  0.42414255    -0.32570
C503        C  0.11736435  0.69254365  0.38507291     0.36680
C504        C  0.12576801  0.73515630  0.36422954    -0.05500
C505        C  0.09515469  0.75027490  0.37928446    -0.32470
C506        C  0.05908652  0.72543309  0.41820224     0.36590
H507        H  0.07787397  0.63713467  0.44315021     0.16960
O508        O  0.14723436  0.67725579  0.37302472    -0.59960
H509        H  0.10097081  0.78286137  0.36347327     0.16970
O510        O  0.03279309  0.74339823  0.43638254    -0.60060
H511        H  0.00802943  0.73390146  0.40701907     0.43970
H512        H  0.13084546  0.65262138  0.34419696     0.43920
C513        C  0.05989609  0.68537236  0.54879900    -0.05140
C514        C  0.07351134  0.72968497  0.56731359    -0.32570
C515        C  0.11010392  0.75266772  0.60585322     0.36680
C516        C  0.13575990  0.73238548  0.62399850    -0.05500
C517        C  0.12030447  0.68674485  0.60862661    -0.32470
C518        C  0.08213918  0.66300070  0.57158053     0.36590
H519        H  0.05696150  0.74746760  0.54978657     0.16960
O520        O  0.12149607  0.79554103  0.62461288    -0.59960
H521        H  0.13947582  0.67053459  0.62240578     0.16970
O522        O  0.06916774  0.61942682  0.55458095    -0.60060
H523        H  0.04136189  0.59911711  0.57768481     0.43970
H524        H  0.13147337  0.81541179  0.59004565     0.43920
C525        C  0.95986200  0.63069171  0.56196298    -0.05140
C526        C  0.96260468  0.66382789  0.60051953    -0.32570
C527        C  0.92928459  0.65209240  0.64313382     0.36680
C528        C  0.89193914  0.60686770  0.64699916    -0.05500
C529        C  0.89230417  0.57274021  0.61347604    -0.32470
C530        C  0.92587267  0.58447140  0.57086560     0.36590
H531        H  0.98659896  0.69971235  0.59322242     0.16960
O532        O  0.93031748  0.68604846  0.67604903    -0.59960
H533        H  0.86376999  0.53771593  0.61598429     0.16970
O534        O  0.92253262  0.55125032  0.53434602    -0.60060
H535        H  0.89824264  0.54638052  0.50597362     0.43970
H536        H  0.94436428  0.68475819  0.71307355     0.43920
C537        C  0.94882777  0.64029338  0.45643267    -0.05140
C538        C  0.91446312  0.65060803  0.47002221    -0.32570
C539        C  0.87678339  0.63879512  0.43415578     0.36680
C540        C  0.87466093  0.62078095  0.37862379    -0.05500
C541        C  0.91077386  0.61285819  0.36318092    -0.32470
C542        C  0.94665229  0.62093317  0.40214756     0.36590
H543        H  0.91462273  0.66529983  0.51119695     0.16960
O544        O  0.84004514  0.64040807  0.45719372    -0.59960
H545        H  0.91078673  0.59888748  0.32156533     0.16970
O546        O  0.97677995  0.60631560  0.38848196    -0.60060
H547        H  0.99412834  0.62458900  0.35450507     0.43970
H548        H  0.85141831  0.67331471  0.46421715     0.43920
C549        C  0.62097580  0.73649409  0.64025706    -0.05140
C550        C  0.58845422  0.69225333  0.62163376    -0.32570
C551        C  0.60131586  0.66954433  0.58257308     0.36680
C552        C  0.64694856  0.69128226  0.56169019    -0.05500
C553        C  0.68074673  0.73253328  0.58643045    -0.32470
C554        C  0.66796455  0.75542117  0.62531683     0.36590
H555        H  0.55232536  0.67700655  0.63330248     0.16960
O556        O  0.56813754  0.62808975  0.56087812    -0.59960
H557        H  0.71615864  0.74919803  0.57128525     0.16970
O558        O  0.70100556  0.79744939  0.64610310    -0.60060
H559        H  0.71033466  0.81871431  0.61293823     0.43970
H560        H  0.56805794  0.60495522  0.58708684     0.43920
C561        C  0.61865558  0.74813945  0.37944125    -0.05140
C562        C  0.58871065  0.70090540  0.38898184    -0.32570
C563        C  0.60139179  0.67650358  0.42673476     0.36680
C564        C  0.64403361  0.69960930  0.45610273    -0.05500
C565        C  0.67418684  0.74620114  0.44512712    -0.32470
C566        C  0.66299800  0.76972699  0.40525070     0.36590
H567        H  0.55462420  0.68326073  0.36937325     0.16960
O568        O  0.57170060  0.63060120  0.43572399    -0.59960
H569        H  0.70699718  0.76462235  0.46774061     0.16970
O570        O  0.69551292  0.81430993  0.39289589    -0.60060
H571        H  0.71031198  0.81285130  0.35686205     0.43970
H572        H  0.54345203  0.62802485  0.45287041     0.43920
C573        C  0.68962272  0.64612750  0.43844389    -0.05140
C574        C  0.67296234  0.59944847  0.42930732    -0.32570
C575        C  0.69206816  0.58523547  0.38671716     0.36680
C576        C  0.72825541  0.61810288  0.35239184    -0.05500
C577        C  0.74036068  0.66403961  0.35625616    -0.32470
C578        C  0.72145605  0.67840539  0.39902416     0.36590
H579        H  0.64868306  0.57433318  0.45933671     0.16960
O580        O  0.68003094  0.54009097  0.38486135    -0.59960
H581        H  0.76843668  0.68959939  0.33035846     0.16970
O582        O  0.74093298  0.72443847  0.40845257    -0.60060
H583        H  0.73503093  0.73693953  0.37291961     0.43970
H584        H  0.65224449  0.52505465  0.35971193     0.43920
C585        C  0.70754368  0.65089005  0.54497918    -0.05140
C586        C  0.68494725  0.62675692  0.59503025    -0.32570
C587        C  0.70758974  0.61366863  0.63579222     0.36680
C588        C  0.75309744  0.62185540  0.62519756    -0.05500
C589        C  0.77482630  0.64670565  0.57473805    -0.32470
C590        C  0.75398029  0.66306941  0.53766213     0.36590
H591        H  0.64927937  0.61708938  0.60239346     0.16960
O592        O  0.68483353  0.59403529  0.68586132    -0.59960
H593        H  0.80826119  0.65348354  0.56102063     0.16970
O594        O  0.77973011  0.69037019  0.49299533    -0.60060
H595        H  0.79282410  0.72218775  0.50705803     0.43970
H596        H  0.65902538  0.56321634  0.67498405     0.43920
loop_ 
_geom_bond_atom_site_label_1 
_geom_bond_atom_site_label_2 
_geom_bond_distance 
_geom_bond_site_symmetry_2 
_ccdc_geom_bond_type 
C1            C2   1.360       .  D
C1          C573   1.492       .  S
C1          C585   1.508       .  S
C2          C552   1.478       .  S
C2          C564   1.489       .  S
C3            C4   1.363   1_655  D
C3          C525   1.498       .  S
C3          C537   1.506       .  S
C4          C501   1.484       .  S
C4          C513   1.484       .  S
C5            C6   1.375   1_655  D
C5          C477   1.484       .  S
C5          C489   1.498       .  S
C6          C453   1.501       .  S
C6          C465   1.542       .  S
C7            C8   1.413       .  A
C7           C12   1.406       .  A
C7          C441   1.484       .  S
C8            C9   1.409       .  A
C8           H13   1.083       .  S
C9           C10   1.405       .  A
C9          C492   1.495       .  S
C10          C11   1.400       .  A
C10          H14   1.082       .  S
C11          C12   1.394       .  A
C11         C429   1.475       .  S
C12          H15   1.084       .  S
C16          C17   1.408       .  A
C16          C21   1.413       .  A
C16         C405   1.489       .  S
C17          C18   1.398       .  A
C17          H22   1.082       .  S
C18          C19   1.394       .  A
C18         C480   1.488       .  S
C19          C20   1.409       .  A
C19          H23   1.079       .  S
C20          C21   1.411       .  A
C20         C420   1.506       .  S
C21          H24   1.080       .  S
C25          C26   1.363   1_545  D
C25         C417   1.503       .  S
C25         C432   1.500       .  S
C26         C384   1.489       .  S
C26         C396   1.485       .  S
C27          C28   1.411       .  A
C27          C32   1.409       .  A
C27         C369   1.493       .  S
C28          C29   1.408       .  A
C28          H33   1.082       .  S
C29          C30   1.410       .  A
C29         C456   1.500       .  S
C30          C31   1.404       .  A
C30          H34   1.084       .  S
C31          C32   1.401       .  A
C31         C360   1.484       .  S
C32          H35   1.084       .  S
C36          C37   1.412       .  A
C36          C41   1.405       .  A
C36         C348   1.486       .  S
C37          C38   1.417       .  A
C37          H42   1.079       .  S
C38          C39   1.407       .  A
C38         C333   1.515       .  S
C39          C40   1.395       .  A
C39          H43   1.075       .  S
C40          C41   1.391       .  A
C40         C468   1.474       .  S
C41          H44   1.081       .  S
C45          C46   1.362       .  D
C45         C312   1.487       .  S
C45         C321   1.490       .  S
C46         C336   1.492       .  S
C46         C357   1.500       .  S
C47          C48   1.408       .  A
C47          C52   1.405       .  A
C47         C285   1.481       .  S
C48          C49   1.407       .  A
C48          H53   1.082       .  S
C49          C50   1.409       .  A
C49         C309   1.493       .  S
C50          C51   1.402       .  A
C50          H54   1.084       .  S
C51          C52   1.394       .  A
C51         C300   1.476       .  S
C52          H55   1.084       .  S
C56          C57   1.416       .  A
C56          C61   1.402       .  A
C56         C273   1.489       .  S
C57          C58   1.422       .  A
C57          H62   1.074       .  S
C58          C59   1.417       .  A
C58         C588   1.531       .  S
C59          C60   1.398       .  A
C59          H63   1.075       .  S
C60          C61   1.390       .  A
C60         C528   1.480       .  S
C61          H64   1.084       .  S
O65         Cr83   1.965       .  S
O65          C73   1.256       .  A
O66         Cr83   2.012       .  S
O66          C67   1.268       .  A
C67         C408   1.469       .  S
C67          O68   1.258       .  A
O68         Cr84   1.963       .  S
O69         Cr84   2.015       .  S
O69          C70   1.268       .  A
C70         C252   1.467       .  S
C70          O71   1.259       .  A
O71         Cr85   1.971       .  S
O72         Cr85   2.013       .  S
O72          C73   1.268       .  A
C73         C264   1.479       .  S
O74         Cr83   2.018   1_556  S
O74          C82   1.269       .  A
O75         Cr83   1.970   1_556  S
O75          C76   1.257       .  A
C76         C444   1.481       .  S
C76          O77   1.267       .  A
O77         Cr84   2.012   1_556  S
O78         Cr84   1.966   1_556  S
O78          C79   1.258       .  A
C79         C288   1.479       .  S
C79          O80   1.266       .  A
O80         Cr85   2.010   1_556  S
O81         Cr85   1.973   1_556  S
O81          C82   1.258       .  A
C82         C276   1.486       .  S
Cr83         O86   1.764       .  S
Cr84         O86   1.767       .  S
Cr85         O86   1.768       .  S
C87          C88   1.402       .  A
C87          C92   1.414       .  A
C87         C261   1.483       .  S
C88          C89   1.390       .  A
C88          H93   1.083       .  S
C89          C90   1.398       .  A
C89         C576   1.476       .  S
C90          C91   1.408       .  A
C90          H94   1.078       .  S
C91          C92   1.415       .  A
C91         C540   1.512       .  S
C92          H95   1.080       .  S
C96          C97   1.406       .  A
C96         C101   1.411       .  A
C96         C249   1.485       .  S
C97          C98   1.399       .  A
C97         H102   1.084       .  S
C98          C99   1.398       .  A
C98         C324   1.487       .  S
C99         C100   1.408       .  A
C99         H103   1.077       .  S
C100        C101   1.413       .  A
C100        C240   1.508       .  S
C101        H104   1.081       .  S
C105        C106   1.412       .  A
C105        C110   1.410       .  A
C105        C225   1.481       .  S
C106        C107   1.400       .  A
C106        H111   1.083       .  S
C107        C108   1.397       .  A
C107        C216   1.482       .  S
C108        C109   1.399       .  A
C108        H112   1.084       .  S
C109        C110   1.401       .  A
C109        C516   1.482       .  S
C110        H113   1.084       .  S
C114        C115   1.406       .  A
C114        C119   1.409       .  A
C114        C204   1.488       .  S
C115        C116   1.403       .  A
C115        H120   1.083       .  S
C116        C117   1.403       .  A
C116        C504   1.486       .  S
C117        C118   1.405       .  A
C117        H121   1.084       .  S
C118        C119   1.408       .  A
C118        C189   1.492       .  S
C119        H122   1.083       .  S
O123       Cr141   2.005   1_556  S
O123        C131   1.264       .  A
O124       Cr141   1.969   1_556  S
O124        C125   1.261       .  A
C125        C228   1.481       .  S
C125        O126   1.268       .  A
O126       Cr142   2.016   1_556  S
O127       Cr142   1.978   1_556  S
O127        C128   1.261       .  A
C128        C372   1.491       .  S
C128        O129   1.268       .  A
O129       Cr143   2.016   1_556  S
O130       Cr143   1.970   1_556  S
O130        C131   1.258       .  A
C131        C165   1.465       .  S
O132       Cr141   1.975       .  S
O132        C140   1.260       .  A
O133       Cr141   2.008       .  S
O133        C134   1.264       .  A
C134        C201   1.486       .  S
C134        O135   1.259       .  A
O135       Cr142   1.982       .  S
O136       Cr142   2.004       .  S
O136        C137   1.266       .  A
C137        C345   1.464       .  S
C137        O138   1.257       .  A
O138       Cr143   1.966       .  S
O139       Cr143   2.015       .  S
O139        C140   1.267       .  A
C140        C180   1.470       .  S
Cr141       O144   1.767       .  S
Cr142       O144   1.768       .  S
Cr143       O144   1.775       .  S
C145        C146   1.409       .  A
C145        C150   1.413       .  A
C145        C168   1.488       .  S
C146        C147   1.397       .  A
C146        H151   1.082       .  S
C147        C148   1.395       .  A
C147        C549   1.477       .  S
C148        C149   1.402       .  A
C148        H152   1.084       .  S
C149        C150   1.404       .  A
C149        C393   1.490       .  S
C150        H153   1.082       .  S
C154        C155   1.407       .  A
C154        C159   1.404       .  A
C154        C177   1.472       .  S
C155        C156   1.407       .  A
C155        H160   1.083       .  S
C156        C157   1.406       .  A
C156        C561   1.493       .  S
C157        C158   1.398       .  A
C157        H161   1.083       .  S
C158        C159   1.399       .  A
C158        C381   1.476       .  S
C159        H162   1.084       .  S
C163        C164   1.363   1_565  D
C163        C192   1.488       .  S
C163        C213   1.487       .  S
C164        C237   1.505       .  S
C164        C297   1.497       .  S
C165        C166   1.398       .  A
C165        C170   1.402       .  A
C166        C167   1.401       .  A
C166        H171   1.084       .  S
C167        C168   1.415       .  A
C167        O172   1.373       .  S
C168        C169   1.407       .  A
C169        C170   1.396       .  A
C169        H173   1.083       .  S
C170        O174   1.369       .  S
O172        H176   0.992       .  S
O174        H175   0.992       .  S
C177        C178   1.402       .  A
C177        C182   1.406       .  A
C178        C179   1.399       .  A
C178        H183   1.084       .  S
C179        C180   1.407       .  A
C179        O184   1.372       .  S
C180        C181   1.403       .  A
C181        C182   1.401       .  A
C181        H185   1.084       .  S
C182        O186   1.371       .  S
O184        H188   0.992       .  S
O186        H187   0.991       .  S
C189        C190   1.409       .  A
C189        C194   1.411       .  A
C190        C191   1.402       .  A
C190        H195   1.083       .  S
C191        C192   1.406       .  A
C191        O196   1.371       .  S
C192        C193   1.403       .  A
C193        C194   1.400       .  A
C193        H197   1.082       .  S
C194        O198   1.372       .  S
O196        H200   0.991       .  S
O198        H199   0.992       .  S
C201        C202   1.405       .  A
C201        C206   1.413       .  A
C202        C203   1.401       .  A
C202        H207   1.084       .  S
C203        C204   1.412       .  A
C203        O208   1.372       .  S
C204        C205   1.403       .  A
C205        C206   1.402       .  A
C205        H209   1.083       .  S
C206        O210   1.372       .  S
O208        H212   0.992       .  S
O210        H211   0.992       .  S
C213        C214   1.401       .  A
C213        C218   1.409       .  A
C214        C215   1.391       .  A
C214        H219   1.083       .  S
C215        C216   1.409       .  A
C215        O220   1.372       .  S
C216        C217   1.405       .  A
C217        C218   1.409       .  A
C217        H221   1.083       .  S
C218        O222   1.373       .  S
O220        H224   0.992       .  S
O222        H223   0.992       .  S
C225        C226   1.406       .  A
C225        C230   1.407       .  A
C226        C227   1.402       .  A
C226        H231   1.083       .  S
C227        C228   1.411       .  A
C227        O232   1.371       .  S
C228        C229   1.403       .  A
C229        C230   1.396       .  A
C229        H233   1.078       .  S
C230        O234   1.373       .  S
O232        H236   0.992       .  S
O234        H235   0.992       .  S
C237        C238   1.402       .  A
C237        C242   1.411       .  A
C238        C239   1.383       .  A
C238        H243   1.079       .  S
C239        C240   1.417       .  A
C239        O244   1.372       .  S
C240        C241   1.415       .  A
C241        C242   1.414       .  A
C241        H245   1.081       .  S
C242        O246   1.371       .  S
O244        H248   0.992       .  S
O246        H247   0.992       .  S
C249        C250   1.406       .  A
C249        C254   1.412       .  A
C250        C251   1.403       .  A
C250        H255   1.083       .  S
C251        C252   1.406       .  A
C251        O256   1.372       .  S
C252        C253   1.398       .  A
C253        C254   1.398       .  A
C253        H257   1.084       .  S
C254        O258   1.372       .  S
O256        H260   0.992       .  S
O258        H259   0.992       .  S
C261        C262   1.403       .  A
C261        C266   1.412       .  A
C262        C263   1.400       .  A
C262        H267   1.083       .  S
C263        C264   1.413       .  A
C263        O268   1.371       .  S
C264        C265   1.401       .  A
C265        C266   1.396       .  A
C265        H269   1.084       .  S
C266        O270   1.373       .  S
O268        H272   0.992       .  S
O270        H271   0.992       .  S
C273        C274   1.404       .  A
C273        C278   1.412       .  A
C274        C275   1.404       .  A
C274        H279   1.083       .  S
C275        C276   1.415       .  A
C275        O280   1.372       .  S
C276        C277   1.403       .  A
C277        C278   1.399       .  A
C277        H281   1.084       .  S
C278        O282   1.373       .  S
O280        H284   0.992       .  S
O282        H283   0.992       .  S
C285        C286   1.403       .  A
C285        C290   1.409       .  A
C286        C287   1.395       .  A
C286        H291   1.084       .  S
C287        C288   1.411       .  A
C287        O292   1.372       .  S
C288        C289   1.405       .  A
C289        C290   1.401       .  A
C289        H293   1.083       .  S
C290        O294   1.372       .  S
O292        H296   0.992       .  S
O294        H295   0.992       .  S
C297        C298   1.408       .  A
C297        C302   1.409       .  A
C298        C299   1.399       .  A
C298        H303   1.079       .  S
C299        C300   1.405       .  A
C299        O304   1.371       .  S
C300        C301   1.402       .  A
C301        C302   1.402       .  A
C301        H305   1.084       .  S
C302        O306   1.372       .  S
O304        H308   0.992       .  S
O306        H307   0.992       .  S
C309        C310   1.404       .  A
C309        C314   1.415       .  A
C310        C311   1.398       .  A
C310        H315   1.083       .  S
C311        C312   1.408       .  A
C311        O316   1.374       .  S
C312        C313   1.402       .  A
C313        C314   1.406       .  A
C313        H317   1.083       .  S
C314        O318   1.372       .  S
O316        H320   0.992       .  S
O318        H319   0.992       .  S
C321        C322   1.404       .  A
C321        C326   1.407       .  A
C322        C323   1.404       .  A
C322        H327   1.083       .  S
C323        C324   1.412       .  A
C323        O328   1.373       .  S
C324        C325   1.405       .  A
C325        C326   1.398       .  A
C325        H329   1.084       .  S
C326        O330   1.371       .  S
O328        H332   0.992       .  S
O330        H331   0.991       .  S
C333        C334   1.417       .  A
C333        C338   1.427       .  A
C334        C335   1.408       .  A
C334        H339   1.080       .  S
C335        C336   1.405       .  A
C335        O340   1.372       .  S
C336        C337   1.393       .  A
C337        C338   1.387       .  A
C337        H341   1.083       .  S
C338        O342   1.370       .  S
O340        H344   0.992       .  S
O342        H343   0.993       .  S
C345        C346   1.399       .  A
C345        C350   1.403       .  A
C346        C347   1.400       .  A
C346        H351   1.084       .  S
C347        C348   1.414       .  A
C347        O352   1.373       .  S
C348        C349   1.407       .  A
C349        C350   1.398       .  A
C349        H353   1.083       .  S
C350        O354   1.372       .  S
O352        H356   0.992       .  S
O354        H355   0.992       .  S
C357        C358   1.406       .  A
C357        C362   1.412       .  A
C358        C359   1.402       .  A
C358        H363   1.078       .  S
C359        C360   1.407       .  A
C359        O364   1.371       .  S
C360        C361   1.402       .  A
C361        C362   1.405       .  A
C361        H365   1.084       .  S
C362        O366   1.373       .  S
O364        H368   0.992       .  S
O366        H367   0.992       .  S
C369        C370   1.406       .  A
C369        C374   1.411       .  A
C370        C371   1.403       .  A
C370        H375   1.083       .  S
C371        C372   1.413       .  A
C371        O376   1.371       .  S
C372        C373   1.407       .  A
C373        C374   1.403       .  A
C373        H377   1.084       .  S
C374        O378   1.372       .  S
O376        H380   0.992       .  S
O378        H379   0.992       .  S
C381        C382   1.405       .  A
C381        C386   1.404       .  A
C382        C383   1.405       .  A
C382        H387   1.084       .  S
C383        C384   1.409       .  A
C383        O388   1.375       .  S
C384        C385   1.405       .  A
C385        C386   1.398       .  A
C385        H389   1.083       .  S
C386        O390   1.371       .  S
O388        H392   0.991       .  S
O390        H391   0.992       .  S
C393        C394   1.403       .  A
C393        C398   1.414       .  A
C394        C395   1.390       .  A
C394        H399   1.084       .  S
C395        C396   1.405       .  A
C395        O400   1.372       .  S
C396        C397   1.404       .  A
C397        C398   1.408       .  A
C397        H401   1.083       .  S
C398        O402   1.371       .  S
O400        H404   0.992       .  S
O402        H403   0.992       .  S
C405        C406   1.407       .  A
C405        C410   1.415       .  A
C406        C407   1.399       .  A
C406        H411   1.083       .  S
C407        C408   1.406       .  A
C407        O412   1.372       .  S
C408        C409   1.399       .  A
C409        C410   1.398       .  A
C409        H413   1.082       .  S
C410        O414   1.372       .  S
O412        H416   0.992       .  S
O414        H415   0.992       .  S
C417        C418   1.410       .  A
C417        C422   1.406       .  A
C418        C419   1.415       .  A
C418        H423   1.082       .  S
C419        C420   1.418       .  A
C419        O424   1.371       .  S
C420        C421   1.406       .  A
C421        C422   1.383       .  A
C421        H425   1.081       .  S
C422        O426   1.371       .  S
O424        H428   0.992       .  S
O426        H427   0.990       .  S
C429        C430   1.398       .  A
C429        C434   1.404       .  A
C430        C431   1.401       .  A
C430        H435   1.084       .  S
C431        C432   1.415       .  A
C431        O436   1.368       .  S
C432        C433   1.406       .  A
C433        C434   1.400       .  A
C433        H437   1.084       .  S
C434        O438   1.372       .  S
O436        H440   0.992       .  S
O438        H439   0.992       .  S
C441        C442   1.403       .  A
C441        C446   1.411       .  A
C442        C443   1.400       .  A
C442        H447   1.083       .  S
C443        C444   1.413       .  A
C443        O448   1.372       .  S
C444        C445   1.404       .  A
C445        C446   1.398       .  A
C445        H449   1.084       .  S
C446        O450   1.372       .  S
O448        H452   0.992       .  S
O450        H451   0.992       .  S
C453        C454   1.403       .  A
C453        C458   1.410       .  A
C454        C455   1.407       .  A
C454        H459   1.083       .  S
C455        C456   1.417       .  A
C455        O460   1.371       .  S
C456        C457   1.407       .  A
C457        C458   1.400       .  A
C457        H461   1.083       .  S
C458        O462   1.372       .  S
O460        H464   0.992       .  S
O462        H463   0.992       .  S
C465        C466   1.417       .  A
C465        C470   1.430       .  A
C466        C467   1.388       .  A
C466        H471   1.077       .  S
C467        C468   1.400       .  A
C467        O472   1.377       .  S
C468        C469   1.395       .  A
C469        C470   1.409       .  A
C469        H473   1.083       .  S
C470        O474   1.364       .  S
O472        H476   0.992       .  S
O474        H475   0.992       .  S
C477        C478   1.404       .  A
C477        C482   1.408       .  A
C478        C479   1.402       .  A
C478        H483   1.084       .  S
C479        C480   1.413       .  A
C479        O484   1.371       .  S
C480        C481   1.406       .  A
C481        C482   1.397       .  A
C481        H485   1.084       .  S
C482        O486   1.369       .  S
O484        H488   0.992       .  S
O486        H487   0.992       .  S
C489        C490   1.402       .  A
C489        C494   1.410       .  A
C490        C491   1.399       .  A
C490        H495   1.082       .  S
C491        C492   1.412       .  A
C491        O496   1.371       .  S
C492        C493   1.407       .  A
C493        C494   1.410       .  A
C493        H497   1.083       .  S
C494        O498   1.374       .  S
O496        H500   0.992       .  S
O498        H499   0.992       .  S
C501        C502   1.403       .  A
C501        C506   1.407       .  A
C502        C503   1.399       .  A
C502        H507   1.083       .  S
C503        C504   1.409       .  A
C503        O508   1.372       .  S
C504        C505   1.407       .  A
C505        C506   1.402       .  A
C505        H509   1.083       .  S
C506        O510   1.371       .  S
O508        H512   0.992       .  S
O510        H511   0.992       .  S
C513        C514   1.399       .  A
C513        C518   1.407       .  A
C514        C515   1.392       .  A
C514        H519   1.083       .  S
C515        C516   1.409       .  A
C515        O520   1.374       .  S
C516        C517   1.407       .  A
C517        C518   1.405       .  A
C517        H521   1.083       .  S
C518        O522   1.371       .  S
O520        H524   0.992       .  S
O522        H523   0.992       .  S
C525        C526   1.407       .  A
C525        C530   1.408       .  A
C526        C527   1.396       .  A
C526        H531   1.078       .  S
C527        C528   1.406       .  A
C527        O532   1.371       .  S
C528        C529   1.404       .  A
C529        C530   1.402       .  A
C529        H533   1.084       .  S
C530        O534   1.372       .  S
O532        H536   0.992       .  S
O534        H535   0.992       .  S
C537        C538   1.401       .  A
C537        C542   1.411       .  A
C538        C539   1.389       .  A
C538        H543   1.081       .  S
C539        C540   1.419       .  A
C539        O544   1.373       .  S
C540        C541   1.415       .  A
C541        C542   1.414       .  A
C541        H545   1.081       .  S
C542        O546   1.371       .  S
O544        H548   0.993       .  S
O546        H547   0.992       .  S
C549        C550   1.401       .  A
C549        C554   1.411       .  A
C550        C551   1.398       .  A
C550        H555   1.083       .  S
C551        C552   1.407       .  A
C551        O556   1.370       .  S
C552        C553   1.400       .  A
C553        C554   1.398       .  A
C553        H557   1.084       .  S
C554        O558   1.373       .  S
O556        H560   0.991       .  S
O558        H559   0.992       .  S
C561        C562   1.410       .  A
C561        C566   1.411       .  A
C562        C563   1.409       .  A
C562        H567   1.083       .  S
C563        C564   1.406       .  A
C563        O568   1.372       .  S
C564        C565   1.400       .  A
C565        C566   1.391       .  A
C565        H569   1.083       .  S
C566        O570   1.372       .  S
O568        H572   0.992       .  S
O570        H571   0.992       .  S
C573        C574   1.402       .  A
C573        C578   1.413       .  A
C574        C575   1.397       .  A
C574        H579   1.084       .  S
C575        C576   1.409       .  A
C575        O580   1.372       .  S
C576        C577   1.399       .  A
C577        C578   1.399       .  A
C577        H581   1.084       .  S
C578        O582   1.370       .  S
O580        H584   0.992       .  S
O582        H583   0.992       .  S
C585        C586   1.406       .  A
C585        C590   1.404       .  A
C586        C587   1.416       .  A
C586        H591   1.081       .  S
C587        C588   1.427       .  A
C587        O592   1.369       .  S
C588        C589   1.415       .  A
C589        C590   1.388       .  A
C589        H593   1.074       .  S
C590        O594   1.370       .  S
O592        H596   0.992       .  S
O594        H595   0.992       .  S
