geometry optimzed in LAMMPS
_audit_creation_date              2020-11-30 
_audit_creation_method            'lammps2cif' 
_symmetry_space_group_name_H-M    'P1' 
_symmetry_Int_Tables_number       1 
_symmetry_cell_setting            triclinic 
loop_ 
_symmetry_equiv_pos_as_xyz 
  x,y,z 
_cell_length_a                    45.161376840596475 
_cell_length_b                    44.59314539197735 
_cell_length_c                    67.18218704161622 
_cell_angle_alpha                 90.04047184006428 
_cell_angle_beta                  89.97516681609332 
_cell_angle_gamma                 120.45558843597702 
loop_ 
_atom_site_label 
_atom_site_type_symbol 
_atom_site_fract_x 
_atom_site_fract_y 
_atom_site_fract_z 
_atom_site_charge 
N1          N  0.19452414  0.05243896  0.55409194    -0.26970
N2          N  0.21857724  0.08575018  0.55449657    -0.34830
C3          C  0.23608160  0.09413540  0.53726894     0.01370
C4          C  0.22220236  0.06487766  0.52539759     0.07400
C5          C  0.19570281  0.03894566  0.53637607    -0.05700
H6          H  0.25607869  0.12011812  0.53321903     0.08060
H7          H  0.17819590  0.51246245  0.53171443     0.09260
Cu8        Cu  0.22293863  0.12026297  0.57653079     0.44170
Cu9        Cu  0.16097290  0.02716087  0.57755013     0.41990
Cu10       Cu  0.16192823  0.08448896  0.61615067     0.43880
N11         N  0.21319291  0.15060377  0.59573049    -0.34360
N12         N  0.18932083  0.13723429  0.60968980    -0.28610
C13         C  0.18505202  0.16264677  0.61740932    -0.04710
C14         C  0.20772511  0.19358491  0.60803837     0.07510
C15         C  0.22518379  0.18497301  0.59439884     0.01300
H16         H  0.16611000  0.15870270  0.62855268     0.08950
H17         H  0.24342990  0.20192693  0.58334664     0.08030
N18         N  0.13614069  0.03071615  0.61864419    -0.35800
N19         N  0.13461898  0.00962473  0.60432234    -0.27980
C20         C  0.11396590  0.47648548  0.61020529    -0.03220
C21         C  0.10233362  0.47677616  0.62925700     0.05390
C22         C  0.11692870  0.01162074  0.63409168     0.03480
H23         H  0.10764364  0.45388263  0.60120706     0.08590
H24         H  0.11264289  0.02237255  0.64747645     0.07420
N25         N  0.22807597  0.46897953  0.55863329    -0.26970
N26         N  0.20368478  0.43581556  0.55868363    -0.34830
C27         C  0.18642447  0.42823414  0.54140303     0.01370
C28         C  0.20090934  0.45787839  0.52980142     0.07400
C29         C  0.22729359  0.48324863  0.54115678    -0.05700
H30         H  0.16611831  0.40251666  0.53714279     0.08060
H31         H  0.24487841  0.00998414  0.53697220     0.09260
Cu32       Cu  0.19848794  0.40055499  0.58035771     0.44170
Cu33       Cu  0.26169526  0.99307782  0.58211311     0.41990
Cu34       Cu  0.25976907  0.43448750  0.62003863     0.43880
N35         N  0.20803789  0.36937102  0.59887110    -0.34360
N36         N  0.23198921  0.38199419  0.61280268    -0.28610
C37         C  0.23622894  0.35614120  0.61980572    -0.04710
C38         C  0.21346619  0.32571593  0.60998374     0.07510
C39         C  0.19598483  0.33509375  0.59684276     0.01300
H40         H  0.25527318  0.35947974  0.63072022     0.08950
H41         H  0.17776077  0.31879525  0.58558855     0.08030
N42         N  0.28632802  0.48827009  0.62294810    -0.35800
N43         N  0.28824329  0.00974266  0.60877675    -0.27980
C44         C  0.30945475  0.04271096  0.61473355    -0.03220
C45         C  0.32103283  0.04194357  0.63369923     0.05390
C46         C  0.30584059  0.00699735  0.63841427     0.03480
H47         H  0.31620973  0.06550917  0.60583255     0.08590
H48         H  0.30996673  0.49593113  0.65170189     0.07420
N49         N  0.50797670  0.24219107  0.75471757    -0.26970
N50         N  0.04104378  0.26598474  0.75421492    -0.34830
C51         C  0.04993901  0.28349360  0.77151590     0.01370
C52         C  0.02130279  0.26975562  0.78358982     0.07400
C53         C  0.49513480  0.24349916  0.77257087    -0.05700
H54         H  0.07586063  0.30320992  0.77550745     0.08060
H55         H  0.46890641  0.22623169  0.77730118     0.09260
Cu56       Cu  0.07456786  0.26943526  0.73210232     0.44170
Cu57       Cu  0.48231155  0.20849725  0.73130762     0.41990
Cu58       Cu  0.03853455  0.20594135  0.69344652     0.43880
N59         N  0.10421154  0.25851502  0.71327476    -0.34360
N60         N  0.09082923  0.23381940  0.69961174    -0.28610
C61         C  0.11590326  0.22939960  0.69192602    -0.04710
C62         C  0.14660453  0.25264560  0.70113940     0.07510
C63         C  0.13817969  0.27079039  0.71450480     0.01300
H64         H  0.11190405  0.21015698  0.68080358     0.08950
H65         H  0.15509585  0.28992572  0.72523864     0.08030
N66         N  0.48541574  0.18110745  0.69082239    -0.35800
N67         N  0.46479614  0.18125941  0.70475103    -0.27980
C68         C  0.43202480  0.16158893  0.69863738    -0.03220
C69         C  0.43202048  0.14872462  0.67985045     0.05390
C70         C  0.46635592  0.16162110  0.67543329     0.03480
H71         H  0.40985747  0.15692209  0.70727822     0.08590
H72         H  0.47677277  0.15622350  0.66232652     0.07420
N73         N  0.42001746  0.27209579  0.74993678    -0.26970
N74         N  0.38660370  0.24970430  0.75033662    -0.34830
C75         C  0.37832218  0.23301953  0.76787773     0.01370
C76         C  0.40782078  0.24563405  0.77922686     0.07400
C77         C  0.43384397  0.27037003  0.76732982    -0.05700
H78         H  0.35233829  0.21447873  0.77245564     0.08060
H79         H  0.46075553  0.28640954  0.77108049     0.09260
Cu80       Cu  0.35236575  0.24643725  0.72880569     0.44170
Cu81       Cu  0.44472491  0.30534706  0.72623557     0.41990
Cu82       Cu  0.38710787  0.30974315  0.68997214     0.43880
N83         N  0.32211013  0.25705162  0.71040441    -0.34360
N84         N  0.33499130  0.28191076  0.69683308    -0.28610
C85         C  0.30961468  0.28644018  0.68976587    -0.04710
C86         C  0.27928537  0.26295128  0.69921062     0.07510
C87         C  0.28818406  0.24466091  0.71211332     0.01300
H88         H  0.31315104  0.30598755  0.67898491     0.08950
H89         H  0.27169077  0.22549854  0.72295352     0.08030
N90         N  0.44019101  0.33455120  0.68664106    -0.35800
N91         N  0.46125593  0.33387038  0.70006734    -0.27980
C92         C  0.49385447  0.35408132  0.69379007    -0.03220
C93         C  0.49327918  0.36775269  0.67538680     0.05390
C94         C  0.45881463  0.35481511  0.67136064     0.03480
H95         H  0.01630500  0.35858289  0.70206120     0.08590
H96         H  0.44806605  0.36076548  0.65862783     0.07420
N97         N  0.20395284  0.20883981  0.08486639    -0.26970
N98         N  0.22707369  0.19894215  0.08467836    -0.34830
C99         C  0.24342188  0.20675083  0.10225653     0.01370
C100        C  0.22974249  0.22178709  0.11430505     0.07400
C101        C  0.20459465  0.22256507  0.10286154    -0.05700
H102        H  0.26252848  0.20006431  0.10637949     0.08060
H103        H  0.18778334  0.23205858  0.10732319     0.09260
Cu104      Cu  0.23197143  0.16924144  0.06264851     0.44170
Cu105      Cu  0.17208091  0.20237002  0.06076695     0.41990
Cu106      Cu  0.16894518  0.13999242  0.02492271     0.43880
N107        N  0.22238718  0.12854205  0.04379209    -0.34360
N108        N  0.19751671  0.11650717  0.03044360    -0.28610
C109        C  0.19333422  0.08678954  0.02271091    -0.04710
C110        C  0.21702572  0.08001284  0.03149289     0.07510
C111        C  0.23511861  0.10706104  0.04474830     0.01300
H112        H  0.17368926  0.07066881  0.01204654     0.08950
H113        H  0.25424770  0.10949261  0.05534759     0.08030
N114        N  0.14375482  0.16750345  0.02131853    -0.35800
N115        N  0.14474430  0.19056693  0.03408687    -0.27980
C116        C  0.12459472  0.20253404  0.02717201    -0.03220
C117        C  0.11013764  0.18591937  0.00927465     0.05390
C118        C  0.12298918  0.16399486  0.00612248     0.03480
H119        H  0.11958231  0.22066610  0.03505146     0.08590
H120        H  0.11711959  0.14612697  0.99385392     0.07420
N121        N  0.23201463  0.32397589  0.08428789    -0.26970
N122        N  0.20902356  0.33395291  0.08364123    -0.34830
C123        C  0.19130276  0.32525144  0.10077806     0.01370
C124        C  0.20383006  0.30919334  0.11291789     0.07400
C125        C  0.22984884  0.30906840  0.10204525    -0.05700
H126        H  0.17233915  0.33229591  0.10461274     0.08060
H127        H  0.24651325  0.29960324  0.10684845     0.09260
Cu128      Cu  0.20690207  0.36474277  0.06141636     0.44170
Cu129      Cu  0.26589951  0.33253871  0.06118540     0.41990
Cu130      Cu  0.26914815  0.39127697  0.02235461     0.43880
N131        N  0.21841777  0.40576985  0.04254698    -0.34360
N132        N  0.24243132  0.41675371  0.02868444    -0.28610
C133        C  0.24725990  0.44688144  0.02112251    -0.04710
C134        C  0.22503231  0.45507047  0.03068337     0.07510
C135        C  0.20706420  0.42827810  0.04407445     0.01300
H136        H  0.26612600  0.46204961  0.00988156     0.08950
H137        H  0.18869245  0.42645206  0.05505886     0.08030
N138        N  0.29369742  0.36258329  0.02056402    -0.35800
N139        N  0.29345922  0.34216804  0.03491312    -0.27980
C140        C  0.31357605  0.32933255  0.02953227    -0.03220
C141        C  0.32680939  0.34193134  0.01079176     0.05390
C142        C  0.31364470  0.36293531  0.00559450     0.03480
H143        H  0.31847010  0.31236535  0.03869129     0.08590
H144        H  0.31937560  0.37862485  0.99231883     0.07420
N145        N  0.42160490  0.20516250  0.89282188    -0.26970
N146        N  0.38769384  0.18870000  0.89186827    -0.34830
C147        C  0.37812944  0.19169684  0.87339903     0.01370
C148        C  0.40732900  0.21107399  0.86209166     0.07400
C149        C  0.43441075  0.21934410  0.87492155    -0.05700
H150        H  0.35173568  0.17990188  0.86847671     0.08060
H151        H  0.46136533  0.23312308  0.87132179     0.09260
Cu152      Cu  0.35503004  0.15873010  0.91438535     0.44170
Cu153      Cu  0.44885134  0.20378727  0.91753241     0.41990
Cu154      Cu  0.39392362  0.13439344  0.95187508     0.43880
N155        N  0.32676487  0.11972003  0.93460251    -0.34360
N156        N  0.34116892  0.10912864  0.94778431    -0.28610
C157        C  0.31655532  0.07988218  0.95651630    -0.04710
C158        C  0.28514866  0.07204075  0.94853818     0.07510
C159        C  0.29260304  0.09792881  0.93475554     0.01300
H160        H  0.32127789  0.06488232  0.96736495     0.08950
H161        H  0.27482540  0.09932761  0.92454345     0.08030
N162        N  0.44688741  0.16465541  0.95450011    -0.35800
N163        N  0.46718004  0.19070125  0.94258443    -0.27980
C164        C  0.00002908  0.20389418  0.94855095    -0.03220
C165        C  0.00018275  0.18488227  0.96482228     0.05390
C166        C  0.46612577  0.16033089  0.96811889     0.03480
H167        H  0.02219234  0.22445762  0.94097799     0.08590
H168        H  0.45608308  0.14015813  0.97933773     0.07420
N169        N  0.51351884  0.31997317  0.89525743    -0.26970
N170        N  0.04678209  0.33109087  0.89505066    -0.34830
C171        C  0.05524294  0.32363634  0.87729567     0.01370
C172        C  0.52584885  0.30676881  0.86589233     0.07400
C173        C  0.49994341  0.30517553  0.87763386    -0.05700
H174        H  0.08110453  0.33121399  0.87274399     0.08060
H175        H  0.47347550  0.29538879  0.87355886     0.09260
Cu176      Cu  0.08001314  0.36038212  0.91755730     0.44170
Cu177      Cu  0.48827661  0.32757077  0.91876428     0.41990
Cu178      Cu  0.04367151  0.38599390  0.95714776     0.43880
N179        N  0.10925407  0.39951834  0.93756506    -0.34360
N180        N  0.09608463  0.41032209  0.95145673    -0.28610
C181        C  0.12152024  0.43978789  0.95958671    -0.04710
C182        C  0.15214194  0.44763204  0.95043159     0.07510
C183        C  0.14333988  0.42140518  0.93664993     0.01300
H184        H  0.11779197  0.45492885  0.97083064     0.08950
H185        H  0.16007356  0.41980903  0.92570804     0.08030
N186        N  0.49034398  0.35893933  0.95874864    -0.35800
N187        N  0.47002971  0.33841114  0.94447168    -0.27980
C188        C  0.43711667  0.32672197  0.94956169    -0.03220
C189        C  0.43668005  0.34016264  0.96808054     0.05390
C190        C  0.47090289  0.36048992  0.97341172     0.03480
H191        H  0.41516836  0.30986575  0.94039753     0.08590
H192        H  0.48104415  0.37642516  0.98659848     0.07420
N193        N  0.27175164  0.05846769  0.41333002    -0.26970
N194        N  0.28529363  0.09255200  0.41460612    -0.34830
C195        C  0.27932647  0.10060840  0.43289463     0.01370
C196        C  0.26124379  0.07017179  0.44358980     0.07400
C197        C  0.25715245  0.04400930  0.43083378    -0.05700
H198        H  0.28846274  0.12677576  0.43821042     0.08060
H199        H  0.24515873  0.51656731  0.43397143     0.09260
Cu200      Cu  0.31553933  0.12709951  0.39272284     0.44170
Cu201      Cu  0.27514186  0.03272790  0.38847774     0.41990
Cu202      Cu  0.34160649  0.08914368  0.35439929     0.43880
N203        N  0.35504211  0.15614431  0.37302033    -0.34360
N204        N  0.36593944  0.14210671  0.35970040    -0.28610
C205        C  0.39529007  0.16727641  0.35154959    -0.04710
C206        C  0.40294843  0.19867251  0.36003300     0.07510
C207        C  0.37684175  0.19067917  0.37351161     0.01300
H208        H  0.41049734  0.16287267  0.34077765     0.08950
H209        H  0.37525257  0.20825989  0.38397649     0.08030
N210        N  0.31242770  0.03573227  0.35096262    -0.35800
N211        N  0.28717262  0.01481129  0.36300153    -0.27980
C212        C  0.27441501  0.48169659  0.35692083    -0.03220
C213        C  0.29285510  0.48198905  0.34038020     0.05390
C214        C  0.31676094  0.01661619  0.33710355     0.03480
H215        H  0.25484721  0.45905583  0.36472845     0.08590
H216        H  0.33672662  0.02706721  0.32590163     0.07420
N217        N  0.15796448  0.47173079  0.41704055    -0.26970
N218        N  0.14108166  0.43743514  0.41858933    -0.34830
C219        C  0.14440504  0.42853282  0.43718847     0.01370
C220        C  0.16457247  0.45857747  0.44786247     0.07400
C221        C  0.17269365  0.98548175  0.43468685    -0.05700
H222        H  0.13246932  0.40208730  0.44263324     0.08060
H223        H  0.18691899  0.01295261  0.43784807     0.09260
Cu224      Cu  0.11093467  0.40360267  0.39652050     0.44170
Cu225      Cu  0.15722094  0.99825483  0.39170334     0.41990
Cu226      Cu  0.08992737  0.44185600  0.35687390     0.43880
N227        N  0.07317014  0.37455018  0.37602221    -0.34360
N228        N  0.06401163  0.38875327  0.36187731    -0.28610
C229        C  0.03555108  0.36371429  0.35286613    -0.04710
C230        C  0.02663312  0.33221266  0.36174292     0.07510
C231        C  0.05116148  0.34008048  0.37628979     0.01300
H232        H  0.02189027  0.36827411  0.34114955     0.08950
H233        H  0.05157049  0.32244080  0.38718212     0.08030
N234        N  0.12025537  0.49525913  0.35379689    -0.35800
N235        N  0.14552202  0.01604278  0.36590642    -0.27980
C236        C  0.15878784  0.04916253  0.35965267    -0.03220
C237        C  0.14068141  0.04898438  0.34296002     0.05390
C238        C  0.11648648  0.01444771  0.33976700     0.03480
H239        H  0.17858285  0.07176538  0.36738628     0.08590
H240        H  0.09675923  0.00407843  0.32842617     0.07420
N241        N  0.16077331  0.25772023  0.22652753    -0.26970
N242        N  0.14671565  0.27743044  0.22528926    -0.34830
C243        C  0.15157915  0.29087221  0.20686842     0.01370
C244        C  0.16993099  0.27946645  0.19600589     0.07400
C245        C  0.17494995  0.25820490  0.20885486    -0.05700
H246        H  0.14160376  0.30695678  0.20160109     0.08060
H247        H  0.18617770  0.24253987  0.20543241     0.09260
Cu248      Cu  0.11762610  0.28188076  0.24743730     0.44170
Cu249      Cu  0.15770298  0.22847231  0.25148811     0.41990
Cu250      Cu  0.09911814  0.22582359  0.28916610     0.43880
N251        N  0.08095240  0.27364728  0.26839401    -0.34360
N252        N  0.07329747  0.25209440  0.28352996    -0.28610
C253        C  0.04509847  0.24824408  0.29268365    -0.04710
C254        C  0.03451476  0.26841784  0.28275995     0.07510
C255        C  0.05804001  0.28432369  0.26752788     0.01300
H256        H  0.03260953  0.23100992  0.30512705     0.08950
H257        H  0.05706322  0.30034360  0.25576168     0.08030
N258        N  0.12542803  0.19925940  0.29128560    -0.35800
N259        N  0.14715576  0.20006440  0.27780456    -0.27980
C260        C  0.15793102  0.17815663  0.28350894    -0.03220
C261        C  0.14175566  0.16263333  0.30127340     0.05390
C262        C  0.12155135  0.17682825  0.30573795     0.03480
H263        H  0.17474918  0.17252588  0.27485392     0.08590
H264        H  0.10445270  0.17062004  0.31831391     0.07420
N265        N  0.27407637  0.26918993  0.22838865    -0.26970
N266        N  0.29155458  0.25301034  0.22595649    -0.34830
C267        C  0.28728231  0.24101450  0.20718432     0.01370
C268        C  0.26581448  0.24972961  0.19734460     0.07400
C269        C  0.25797523  0.26752820  0.21127838    -0.05700
H270        H  0.29972432  0.22780954  0.20098522     0.08060
H271        H  0.24360930  0.28040991  0.20902121     0.09260
Cu272      Cu  0.32352051  0.25115576  0.24724379     0.44170
Cu273      Cu  0.27622404  0.29730085  0.25364013     0.41990
Cu274      Cu  0.34059455  0.30751368  0.28898464     0.43880
N275        N  0.36048615  0.26072370  0.26835123    -0.34360
N276        N  0.36782128  0.28275205  0.28324767    -0.28610
C277        C  0.39640679  0.28770643  0.29242364    -0.04710
C278        C  0.40707809  0.26728230  0.28301380     0.07510
C279        C  0.38385442  0.25057994  0.26781338     0.01300
H280        H  0.40932246  0.30600770  0.30439526     0.08950
H281        H  0.38539646  0.23447337  0.25628833     0.08030
N282        N  0.31211633  0.33168748  0.29172153    -0.35800
N283        N  0.28828768  0.32818808  0.27897974    -0.27980
C284        C  0.27674754  0.34953426  0.28451611    -0.03220
C285        C  0.29454990  0.36750035  0.30142837     0.05390
C286        C  0.31648427  0.35520344  0.30559935     0.03480
H287        H  0.25821775  0.35311815  0.27624411     0.08590
H288        H  0.33502446  0.36334702  0.31754751     0.07420
C289        C  0.50159254  0.29913948  0.28024959    -0.20990
C290        C  0.00236398  0.26902084  0.28540018    -0.09030
C291        C  0.47168446  0.23903934  0.29128610     0.29830
C292        C  0.44070859  0.23896187  0.29108227    -0.20990
C293        C  0.44003634  0.26881084  0.28543442    -0.09040
C294        C  0.47070565  0.29915514  0.28036530     0.29840
F295        F  0.47045222  0.32811856  0.27442314    -0.19560
H296        H  0.02486446  0.32250573  0.27568940     0.18200
H297        H  0.41706364  0.21533127  0.29486949     0.18210
F298        F  0.47108813  0.20914266  0.29594221    -0.19550
C299        C  0.11131918  0.07875984  0.32952607    -0.20990
C300        C  0.14204062  0.07889010  0.33271884    -0.09030
C301        C  0.17302264  0.10680341  0.32550802     0.29830
C302        C  0.17290823  0.13388090  0.31492361    -0.20990
C303        C  0.14208305  0.13386155  0.31198295    -0.09040
C304        C  0.11127151  0.10605024  0.31947307     0.29840
F305        F  0.08082975  0.10457809  0.31652669    -0.19560
H306        H  0.08718266  0.05743122  0.33495032     0.18200
H307        H  0.19689569  0.15507847  0.30925599     0.18210
F308        F  0.20306551  0.10730845  0.32815118    -0.19550
C309        C  0.26255176  0.39634044  0.31359578    -0.20990
C310        C  0.29361621  0.39648983  0.31154520    -0.09030
C311        C  0.32401456  0.42483482  0.31912412     0.29830
C312        C  0.32328075  0.45238843  0.32840965    -0.20990
C313        C  0.29231232  0.45208502  0.33069023    -0.09040
C314        C  0.26176841  0.42375341  0.32335919     0.29840
F315        F  0.23151666  0.42313011  0.32510197    -0.19560
H316        H  0.23886880  0.37482088  0.30783471     0.18200
H317        H  0.34707256  0.47405814  0.33396391     0.18210
F318        F  0.35476806  0.42666647  0.31698493    -0.19550
C319        C  0.49693545  0.26767921  0.35995258    -0.20990
C320        C  0.49521603  0.29817744  0.35875367    -0.09030
C321        C  0.46304371  0.29559934  0.35648839     0.29830
C322        C  0.43306678  0.26296407  0.35636415    -0.20990
C323        C  0.43479199  0.23253773  0.35798170    -0.09040
C324        C  0.46702067  0.23504790  0.35934977     0.29840
F325        F  0.46948363  0.20611387  0.36143535    -0.19560
H326        H  0.02149360  0.26917711  0.36177566     0.18200
H327        H  0.40837637  0.26142101  0.35539897     0.18210
F328        F  0.46034979  0.32453509  0.35573325    -0.19550
C329        C  0.21598341  0.47719068  0.95080700    -0.20990
C330        C  0.18617609  0.47946408  0.95237694    -0.09030
C331        C  0.18936083  0.01242980  0.95402232     0.29830
C332        C  0.22181286  0.04251403  0.95326949    -0.20990
C333        C  0.25152486  0.04018557  0.95137581    -0.09040
C334        C  0.24844827  0.00724040  0.95052214     0.29840
F335        F  0.27661224  0.00411929  0.94811941    -0.19560
H336        H  0.21406082  0.45205560  0.94941826     0.18200
H337        H  0.22375056  0.06773412  0.95380835     0.18210
F338        F  0.16112563  0.01571485  0.95506308    -0.19550
C339        C  0.22033483  0.30549048  0.14779080    -0.20990
C340        C  0.19461169  0.29922264  0.13393238    -0.09030
C341        C  0.16063608  0.28568434  0.14058729     0.29830
C342        C  0.15278682  0.27893514  0.16080494    -0.20990
C343        C  0.17860594  0.28564212  0.17467692    -0.09040
C344        C  0.21255197  0.29933181  0.16803053     0.29840
F345        F  0.23858763  0.30895406  0.18112009    -0.19560
H346        H  0.24680684  0.31664403  0.14307052     0.18200
H347        H  0.12647601  0.26849723  0.16567050     0.18210
F348        F  0.13497258  0.27870872  0.12755572    -0.19550
C349        C  0.37936402  0.33597219  0.96857188    -0.20990
C350        C  0.40665581  0.33669642  0.97901214    -0.09030
C351        C  0.40581684  0.33599656  0.99993943     0.29830
C352        C  0.37893091  0.33615051  0.01017456    -0.20990
C353        C  0.35274031  0.33758527  0.99975193    -0.09040
C354        C  0.35275078  0.33671746  0.97881760     0.29840
F355        F  0.32711195  0.33666932  0.96825581    -0.19560
H356        H  0.37931266  0.33621641  0.95246277     0.18200
H357        H  0.37934680  0.33653350  0.02628149     0.18210
F358        F  0.43102484  0.33524975  0.01052374    -0.19550
C359        C  0.27317243  0.24702101  0.14137584    -0.20990
C360        C  0.23872357  0.23162962  0.13538243    -0.09030
C361        C  0.21323185  0.22327640  0.14986165     0.29830
C362        C  0.22218956  0.22939331  0.17001808    -0.20990
C363        C  0.25660065  0.24448143  0.17601067    -0.09040
C364        C  0.28211576  0.25358630  0.16147498     0.29840
F365        F  0.31572178  0.26894863  0.16670573    -0.19560
H366        H  0.29321950  0.25377491  0.13044128     0.18200
H367        H  0.20203490  0.22103942  0.18095224     0.18210
F368        F  0.17956714  0.20740367  0.14469257    -0.19550
C369        C  0.05555145  0.21751317  0.98373013    -0.20990
C370        C  0.02989494  0.18650099  0.97502077    -0.09030
C371        C  0.03158109  0.15608912  0.97706948     0.29830
C372        C  0.05808242  0.15650680  0.98791727    -0.20990
C373        C  0.08320438  0.18707678  0.99727204    -0.09040
C374        C  0.08187712  0.21778740  0.99501756     0.29840
F375        F  0.10611774  0.24801185  0.00347803    -0.19560
H376        H  0.05459791  0.24120229  0.98227532     0.18200
H377        H  0.05836885  0.13248059  0.98941113     0.18210
F378        F  0.00758734  0.12587704  0.96846292    -0.19550
C379        C  0.19127775  0.48513263  0.03178588    -0.20990
C380        C  0.22303089  0.48707506  0.02901933    -0.09030
C381        C  0.25267736  0.01986917  0.02616616     0.29830
C382        C  0.25052983  0.05009554  0.02680014    -0.20990
C383        C  0.21879534  0.04801767  0.02973504    -0.09040
C384        C  0.18904568  0.01524889  0.03195485     0.29840
F385        F  0.15810759  0.01246217  0.03533464    -0.19560
H386        H  0.16813262  0.46019174  0.03405255     0.18200
H387        H  0.27371094  0.07521868  0.02514094     0.18210
F388        F  0.28394530  0.02294174  0.02383891    -0.19550
C389        C  0.38595342  0.20303193  0.80715677    -0.20990
C390        C  0.40968578  0.23646062  0.80016054    -0.09030
C391        C  0.43346289  0.26111859  0.81358974     0.29830
C392        C  0.43303513  0.25240824  0.83361260    -0.20990
C393        C  0.40887185  0.21926274  0.84066752    -0.09040
C394        C  0.38545753  0.19445293  0.82719200     0.29840
F395        F  0.36233556  0.16175702  0.83330673    -0.19560
H396        H  0.36758464  0.18345848  0.79709313     0.18200
H397        H  0.45082028  0.27207755  0.84372371     0.18210
F398        F  0.45576388  0.29419926  0.80772522    -0.19550
C399        C  0.03306488  0.31343220  0.80997184    -0.20990
C400        C  0.02061559  0.27866793  0.80457311    -0.09030
C401        C  0.50980756  0.25310092  0.81943325     0.29830
C402        C  0.51198146  0.26244389  0.83947244    -0.20990
C403        C  0.52374544  0.29708247  0.84483282    -0.09040
C404        C  0.03419840  0.32256514  0.82997819     0.29840
F405        F  0.04564335  0.35623646  0.83486680    -0.19560
H406        H  0.04167567  0.33341855  0.79865385     0.18200
H407        H  0.50502476  0.24273011  0.85077330     0.18210
F408        F  0.49867947  0.21946233  0.81461929    -0.19550
C409        C  0.21064704  0.28791388  0.70004273    -0.20990
C410        C  0.18045965  0.25522490  0.69906228    -0.09030
C411        C  0.18310460  0.22522260  0.69725395     0.29830
C412        C  0.21540056  0.22799816  0.69703692    -0.20990
C413        C  0.24553114  0.26067394  0.69805774    -0.09040
C414        C  0.24294100  0.29072981  0.69929605     0.29840
F415        F  0.27155271  0.32265446  0.70084595    -0.19560
H416        H  0.20919420  0.31132663  0.70152495     0.18200
H417        H  0.21691943  0.20454802  0.69622241     0.18210
F418        F  0.15455549  0.19311943  0.69675056    -0.19550
C419        C  0.15717196  0.44308563  0.50331693    -0.20990
C420        C  0.19181027  0.46041599  0.50907613    -0.09030
C421        C  0.21742454  0.47826402  0.49468794     0.29830
C422        C  0.20836191  0.47848764  0.47483592    -0.20990
C423        C  0.17378406  0.46083539  0.46904082    -0.09040
C424        C  0.14816481  0.44327107  0.48344878     0.29840
F425        F  0.11446028  0.42628739  0.47828060    -0.19560
H426        H  0.13708423  0.42919627  0.51421681     0.18200
H427        H  0.22846849  0.99117414  0.46390660     0.18210
F428        F  0.25118215  0.99358486  0.49955819    -0.19550
C429        C  0.37630115  0.09837632  0.63583764    -0.20990
C430        C  0.34740216  0.07149375  0.64541348    -0.09030
C431        C  0.34510745  0.07203739  0.66626506     0.29830
C432        C  0.37208595  0.09817582  0.67735324    -0.20990
C433        C  0.40199796  0.12382838  0.66785809    -0.09040
C434        C  0.40351591  0.12419306  0.64692299     0.29840
F435        F  0.43133268  0.14937822  0.63713844    -0.19560
H436        H  0.37846915  0.09860487  0.61978484     0.18200
H437        H  0.37013117  0.09748834  0.69341936     0.18210
F438        F  0.31686668  0.04720178  0.67592381    -0.19550
C439        C  0.04832541  0.41908038  0.63144006    -0.20990
C440        C  0.07653662  0.44683896  0.64101770    -0.09030
C441        C  0.07861774  0.44669464  0.66190773     0.29830
C442        C  0.05214280  0.41999301  0.67298616    -0.20990
C443        C  0.02290495  0.39340049  0.66345390    -0.09040
C444        C  0.02156133  0.39273284  0.64252852     0.29840
F445        F  0.49432758  0.36669246  0.63277951    -0.19560
H446        H  0.04628497  0.41852359  0.61537723     0.18200
H447        H  0.05387991  0.42090345  0.68906518     0.18210
F448        F  0.10614785  0.47243917  0.67162475    -0.19550
C449        C  0.17890103  0.22859844  0.61033542    -0.20990
C450        C  0.20934719  0.22737574  0.60987938    -0.09030
C451        C  0.24111557  0.25863903  0.61031218     0.29830
C452        C  0.24227454  0.29057056  0.61114083    -0.20990
C453        C  0.21183665  0.29182734  0.61087466    -0.09040
C454        C  0.18006662  0.26055102  0.61049145     0.29840
F455        F  0.15018830  0.26090312  0.61035373    -0.19560
H456        H  0.15416600  0.20477008  0.60989827     0.18200
H457        H  0.26701699  0.31440465  0.61130877     0.18210
F458        F  0.27098688  0.25827909  0.61003310    -0.19550
C459        C  0.26352823  0.06866139  0.49971209    -0.20990
C460        C  0.23108523  0.06357630  0.50452286    -0.09030
C461        C  0.20835014  0.06001507  0.48924164     0.29830
C462        C  0.21835146  0.06226721  0.46934934    -0.20990
C463        C  0.25061798  0.06690888  0.46451690    -0.09040
C464        C  0.27310339  0.06980356  0.47979560     0.29840
F465        F  0.30440109  0.07418524  0.47542270    -0.19560
H466        H  0.28134553  0.07165556  0.51139885     0.18200
H467        H  0.20114332  0.06098916  0.45774144     0.18210
F468        F  0.17719774  0.05602865  0.49359062    -0.19550
N469        N  0.19452414  0.55243897  0.55409194    -0.26970
N470        N  0.21857724  0.58575018  0.55449657    -0.34830
C471        C  0.23608160  0.59413541  0.53726894     0.01370
C472        C  0.22220237  0.56487767  0.52539759     0.07400
C473        C  0.19570281  0.53894566  0.53637607    -0.05700
H474        H  0.25607868  0.62011812  0.53321903     0.08060
H475        H  0.17819590  0.01246244  0.53171444     0.09260
Cu476      Cu  0.22293862  0.62026298  0.57653079     0.44170
Cu477      Cu  0.16097290  0.52716087  0.57755013     0.41990
Cu478      Cu  0.16192823  0.58448896  0.61615067     0.43880
N479        N  0.21319290  0.65060378  0.59573049    -0.34360
N480        N  0.18932082  0.63723429  0.60968980    -0.28610
C481        C  0.18505201  0.66264677  0.61740931    -0.04710
C482        C  0.20772510  0.69358491  0.60803837     0.07510
C483        C  0.22518379  0.68497301  0.59439883     0.01300
H484        H  0.16610999  0.65870270  0.62855268     0.08950
H485        H  0.24342989  0.70192693  0.58334664     0.08030
N486        N  0.13614069  0.53071615  0.61864418    -0.35800
N487        N  0.13461899  0.50962473  0.60432234    -0.27980
C488        C  0.11396589  0.97648547  0.61020529    -0.03220
C489        C  0.10233362  0.97677616  0.62925701     0.05390
C490        C  0.11692870  0.51162074  0.63409167     0.03480
H491        H  0.10764364  0.95388263  0.60120706     0.08590
H492        H  0.11264289  0.52237255  0.64747645     0.07420
N493        N  0.22807598  0.96897954  0.55863329    -0.26970
N494        N  0.20368478  0.93581557  0.55868362    -0.34830
C495        C  0.18642447  0.92823416  0.54140303     0.01370
C496        C  0.20090934  0.95787841  0.52980142     0.07400
C497        C  0.22729360  0.98324864  0.54115678    -0.05700
H498        H  0.16611831  0.90251667  0.53714279     0.08060
H499        H  0.24487840  0.50998413  0.53697220     0.09260
Cu500      Cu  0.19848793  0.90055499  0.58035771     0.44170
Cu501      Cu  0.26169525  0.49307782  0.58211311     0.41990
Cu502      Cu  0.25976906  0.93448750  0.62003863     0.43880
N503        N  0.20803787  0.86937102  0.59887110    -0.34360
N504        N  0.23198920  0.88199419  0.61280268    -0.28610
C505        C  0.23622893  0.85614120  0.61980572    -0.04710
C506        C  0.21346617  0.82571593  0.60998374     0.07510
C507        C  0.19598482  0.83509376  0.59684275     0.01300
H508        H  0.25527317  0.85947973  0.63072022     0.08950
H509        H  0.17776076  0.81879525  0.58558855     0.08030
N510        N  0.28632802  0.98827009  0.62294810    -0.35800
N511        N  0.28824329  0.50974266  0.60877675    -0.27980
C512        C  0.30945475  0.54271096  0.61473355    -0.03220
C513        C  0.32103284  0.54194357  0.63369923     0.05390
C514        C  0.30584060  0.50699735  0.63841426     0.03480
H515        H  0.31620972  0.56550917  0.60583255     0.08590
H516        H  0.30996672  0.99593113  0.65170189     0.07420
N517        N  0.50797670  0.74219109  0.75471756    -0.26970
N518        N  0.04104378  0.76598474  0.75421491    -0.34830
C519        C  0.04993901  0.78349360  0.77151589     0.01370
C520        C  0.02130279  0.76975562  0.78358981     0.07400
C521        C  0.49513480  0.74349917  0.77257087    -0.05700
H522        H  0.07586063  0.80320993  0.77550744     0.08060
H523        H  0.46890641  0.72623170  0.77730118     0.09260
Cu524      Cu  0.07456786  0.76943526  0.73210232     0.44170
Cu525      Cu  0.48231155  0.70849727  0.73130762     0.41990
Cu526      Cu  0.03853455  0.70594134  0.69344652     0.43880
N527        N  0.10421154  0.75851501  0.71327476    -0.34360
N528        N  0.09082924  0.73381939  0.69961174    -0.28610
C529        C  0.11590326  0.72939959  0.69192602    -0.04710
C530        C  0.14660453  0.75264559  0.70113940     0.07510
C531        C  0.13817969  0.77079038  0.71450480     0.01300
H532        H  0.11190405  0.71015697  0.68080358     0.08950
H533        H  0.15509585  0.78992572  0.72523864     0.08030
N534        N  0.48541574  0.68110746  0.69082238    -0.35800
N535        N  0.46479613  0.68125942  0.70475103    -0.27980
C536        C  0.43202479  0.66158894  0.69863738    -0.03220
C537        C  0.43202048  0.64872463  0.67985045     0.05390
C538        C  0.46635591  0.66162111  0.67543328     0.03480
H539        H  0.40985747  0.65692210  0.70727822     0.08590
H540        H  0.47677277  0.65622351  0.66232652     0.07420
N541        N  0.42001747  0.77209580  0.74993679    -0.26970
N542        N  0.38660371  0.74970430  0.75033663    -0.34830
C543        C  0.37832219  0.73301954  0.76787774     0.01370
C544        C  0.40782079  0.74563406  0.77922686     0.07400
C545        C  0.43384398  0.77037005  0.76732983    -0.05700
H546        H  0.35233830  0.71447873  0.77245564     0.08060
H547        H  0.46075553  0.78640956  0.77108049     0.09260
Cu548      Cu  0.35236575  0.74643725  0.72880570     0.44170
Cu549      Cu  0.44472491  0.80534708  0.72623557     0.41990
Cu550      Cu  0.38710788  0.80974315  0.68997215     0.43880
N551        N  0.32211013  0.75705162  0.71040442    -0.34360
N552        N  0.33499130  0.78191076  0.69683308    -0.28610
C553        C  0.30961468  0.78644017  0.68976587    -0.04710
C554        C  0.27928537  0.76295128  0.69921063     0.07510
C555        C  0.28818406  0.74466090  0.71211332     0.01300
H556        H  0.31315104  0.80598754  0.67898491     0.08950
H557        H  0.27169078  0.72549854  0.72295353     0.08030
N558        N  0.44019101  0.83455121  0.68664107    -0.35800
N559        N  0.46125594  0.83387039  0.70006734    -0.27980
C560        C  0.49385447  0.85408134  0.69379008    -0.03220
C561        C  0.49327918  0.86775271  0.67538680     0.05390
C562        C  0.45881463  0.85481511  0.67136064     0.03480
H563        H  0.01630499  0.85858288  0.70206120     0.08590
H564        H  0.44806605  0.86076549  0.65862783     0.07420
N565        N  0.20395284  0.70883981  0.08486639    -0.26970
N566        N  0.22707368  0.69894214  0.08467835    -0.34830
C567        C  0.24342187  0.70675082  0.10225653     0.01370
C568        C  0.22974249  0.72178708  0.11430505     0.07400
C569        C  0.20459465  0.72256507  0.10286154    -0.05700
H570        H  0.26252847  0.70006430  0.10637950     0.08060
H571        H  0.18778334  0.73205858  0.10732318     0.09260
Cu572      Cu  0.23197143  0.66924144  0.06264851     0.44170
Cu573      Cu  0.17208091  0.70237002  0.06076695     0.41990
Cu574      Cu  0.16894518  0.63999243  0.02492270     0.43880
N575        N  0.22238717  0.62854205  0.04379209    -0.34360
N576        N  0.19751670  0.61650717  0.03044360    -0.28610
C577        C  0.19333422  0.58678954  0.02271090    -0.04710
C578        C  0.21702571  0.58001284  0.03149289     0.07510
C579        C  0.23511861  0.60706104  0.04474830     0.01300
H580        H  0.17368926  0.57066882  0.01204654     0.08950
H581        H  0.25424769  0.60949260  0.05534759     0.08030
N582        N  0.14375482  0.66750346  0.02131852    -0.35800
N583        N  0.14474431  0.69056694  0.03408686    -0.27980
C584        C  0.12459473  0.70253406  0.02717200    -0.03220
C585        C  0.11013765  0.68591939  0.00927464     0.05390
C586        C  0.12298919  0.66399487  0.00612248     0.03480
H587        H  0.11958232  0.72066612  0.03505145     0.08590
H588        H  0.11711959  0.64612698  0.99385391     0.07420
N589        N  0.23201463  0.82397589  0.08428789    -0.26970
N590        N  0.20902357  0.83395290  0.08364124    -0.34830
C591        C  0.19130277  0.82525144  0.10077807     0.01370
C592        C  0.20383007  0.80919334  0.11291790     0.07400
C593        C  0.22984885  0.80906840  0.10204526    -0.05700
H594        H  0.17233915  0.83229591  0.10461275     0.08060
H595        H  0.24651326  0.79960324  0.10684845     0.09260
Cu596      Cu  0.20690208  0.86474277  0.06141637     0.44170
Cu597      Cu  0.26589951  0.83253871  0.06118540     0.41990
Cu598      Cu  0.26914815  0.89127696  0.02235462     0.43880
N599        N  0.21841778  0.90576985  0.04254698    -0.34360
N600        N  0.24243132  0.91675371  0.02868445    -0.28610
C601        C  0.24725991  0.94688144  0.02112252    -0.04710
C602        C  0.22503231  0.95507047  0.03068338     0.07510
C603        C  0.20706420  0.92827810  0.04407446     0.01300
H604        H  0.26612600  0.96204961  0.00988156     0.08950
H605        H  0.18869246  0.92645206  0.05505887     0.08030
N606        N  0.29369742  0.86258328  0.02056402    -0.35800
N607        N  0.29345922  0.84216804  0.03491312    -0.27980
C608        C  0.31357605  0.82933254  0.02953227    -0.03220
C609        C  0.32680938  0.84193133  0.01079176     0.05390
C610        C  0.31364469  0.86293530  0.00559450     0.03480
H611        H  0.31847010  0.81236534  0.03869129     0.08590
H612        H  0.31937559  0.87862484  0.99231883     0.07420
N613        N  0.42160492  0.70516250  0.89282188    -0.26970
N614        N  0.38769386  0.68869999  0.89186827    -0.34830
C615        C  0.37812946  0.69169684  0.87339903     0.01370
C616        C  0.40732902  0.71107399  0.86209166     0.07400
C617        C  0.43441077  0.71934410  0.87492155    -0.05700
H618        H  0.35173570  0.67990187  0.86847670     0.08060
H619        H  0.46136535  0.73312309  0.87132179     0.09260
Cu620      Cu  0.35503006  0.65873009  0.91438535     0.44170
Cu621      Cu  0.44885136  0.70378727  0.91753241     0.41990
Cu622      Cu  0.39392363  0.63439344  0.95187509     0.43880
N623        N  0.32676489  0.61972003  0.93460252    -0.34360
N624        N  0.34116893  0.60912865  0.94778431    -0.28610
C625        C  0.31655533  0.57988219  0.95651631    -0.04710
C626        C  0.28514867  0.57204076  0.94853818     0.07510
C627        C  0.29260305  0.59792881  0.93475554     0.01300
H628        H  0.32127790  0.56488233  0.96736496     0.08950
H629        H  0.27482541  0.59932761  0.92454345     0.08030
N630        N  0.44688742  0.66465542  0.95450011    -0.35800
N631        N  0.46718005  0.69070125  0.94258444    -0.27980
C632        C  0.00002909  0.70389419  0.94855094    -0.03220
C633        C  0.00018276  0.68488228  0.96482228     0.05390
C634        C  0.46612578  0.66033089  0.96811889     0.03480
H635        H  0.02219234  0.72445763  0.94097799     0.08590
H636        H  0.45608309  0.64015813  0.97933774     0.07420
N637        N  0.51351884  0.81997318  0.89525743    -0.26970
N638        N  0.04678208  0.83109087  0.89505066    -0.34830
C639        C  0.05524293  0.82363633  0.87729567     0.01370
C640        C  0.52584885  0.80676881  0.86589233     0.07400
C641        C  0.49994341  0.80517553  0.87763386    -0.05700
H642        H  0.08110452  0.83121398  0.87274398     0.08060
H643        H  0.47347550  0.79538879  0.87355886     0.09260
Cu644      Cu  0.08001313  0.86038211  0.91755730     0.44170
Cu645      Cu  0.48827661  0.82757077  0.91876428     0.41990
Cu646      Cu  0.04367150  0.88599389  0.95714775     0.43880
N647        N  0.10925406  0.89951833  0.93756505    -0.34360
N648        N  0.09608463  0.91032208  0.95145672    -0.28610
C649        C  0.12152023  0.93978788  0.95958671    -0.04710
C650        C  0.15214193  0.94763203  0.95043159     0.07510
C651        C  0.14333987  0.92140517  0.93664993     0.01300
H652        H  0.11779196  0.95492884  0.97083064     0.08950
H653        H  0.16007355  0.91980902  0.92570804     0.08030
N654        N  0.49034397  0.85893933  0.95874863    -0.35800
N655        N  0.47002970  0.83841114  0.94447168    -0.27980
C656        C  0.43711666  0.82672197  0.94956169    -0.03220
C657        C  0.43668005  0.84016264  0.96808054     0.05390
C658        C  0.47090289  0.86048992  0.97341172     0.03480
H659        H  0.41516836  0.80986574  0.94039753     0.08590
H660        H  0.48104414  0.87642516  0.98659848     0.07420
N661        N  0.27175162  0.55846769  0.41333002    -0.26970
N662        N  0.28529362  0.59255200  0.41460612    -0.34830
C663        C  0.27932646  0.60060841  0.43289463     0.01370
C664        C  0.26124378  0.57017180  0.44358979     0.07400
C665        C  0.25715244  0.54400931  0.43083378    -0.05700
H666        H  0.28846273  0.62677576  0.43821041     0.08060
H667        H  0.24515875  0.01656730  0.43397144     0.09260
Cu668      Cu  0.31553932  0.62709952  0.39272284     0.44170
Cu669      Cu  0.27514184  0.53272790  0.38847774     0.41990
Cu670      Cu  0.34160647  0.58914368  0.35439928     0.43880
N671        N  0.35504210  0.65614432  0.37302033    -0.34360
N672        N  0.36593944  0.64210671  0.35970040    -0.28610
C673        C  0.39529007  0.66727641  0.35154959    -0.04710
C674        C  0.40294843  0.69867251  0.36003300     0.07510
C675        C  0.37684175  0.69067917  0.37351162     0.01300
H676        H  0.41049734  0.66287267  0.34077766     0.08950
H677        H  0.37525257  0.70825989  0.38397650     0.08030
N678        N  0.31242768  0.53573227  0.35096262    -0.35800
N679        N  0.28717260  0.51481130  0.36300152    -0.27980
C680        C  0.27441503  0.98169659  0.35692084    -0.03220
C681        C  0.29285512  0.98198905  0.34038020     0.05390
C682        C  0.31676092  0.51661619  0.33710355     0.03480
H683        H  0.25484723  0.95905583  0.36472845     0.08590
H684        H  0.33672660  0.52706721  0.32590163     0.07420
N685        N  0.15796448  0.97173080  0.41704054    -0.26970
N686        N  0.14108166  0.93743516  0.41858933    -0.34830
C687        C  0.14440505  0.92853284  0.43718847     0.01370
C688        C  0.16457248  0.95857749  0.44786247     0.07400
C689        C  0.17269364  0.48548173  0.43468685    -0.05700
H690        H  0.13246933  0.90208732  0.44263325     0.08060
H691        H  0.18691898  0.51295259  0.43784807     0.09260
Cu692      Cu  0.11093467  0.90360268  0.39652051     0.44170
Cu693      Cu  0.15722094  0.49825481  0.39170334     0.41990
Cu694      Cu  0.08992738  0.94185601  0.35687390     0.43880
N695        N  0.07317014  0.87455019  0.37602221    -0.34360
N696        N  0.06401164  0.88875328  0.36187731    -0.28610
C697        C  0.03555109  0.86371429  0.35286613    -0.04710
C698        C  0.02663314  0.83221266  0.36174292     0.07510
C699        C  0.05116149  0.84008049  0.37628980     0.01300
H700        H  0.02189028  0.86827411  0.34114955     0.08950
H701        H  0.05157049  0.82244081  0.38718213     0.08030
N702        N  0.12025538  0.99525914  0.35379688    -0.35800
N703        N  0.14552202  0.51604277  0.36590643    -0.27980
C704        C  0.15878785  0.54916252  0.35965267    -0.03220
C705        C  0.14068142  0.54898437  0.34296002     0.05390
C706        C  0.11648648  0.51444771  0.33976701     0.03480
H707        H  0.17858286  0.57176537  0.36738629     0.08590
H708        H  0.09675923  0.50407842  0.32842617     0.07420
N709        N  0.16077332  0.75772024  0.22652754    -0.26970
N710        N  0.14671565  0.77743044  0.22528926    -0.34830
C711        C  0.15157916  0.79087221  0.20686843     0.01370
C712        C  0.16993100  0.77946645  0.19600590     0.07400
C713        C  0.17494996  0.75820490  0.20885486    -0.05700
H714        H  0.14160377  0.80695679  0.20160109     0.08060
H715        H  0.18617770  0.74253987  0.20543242     0.09260
Cu716      Cu  0.11762611  0.78188077  0.24743730     0.44170
Cu717      Cu  0.15770299  0.72847231  0.25148812     0.41990
Cu718      Cu  0.09911816  0.72582360  0.28916611     0.43880
N719        N  0.08095241  0.77364728  0.26839402    -0.34360
N720        N  0.07329748  0.75209439  0.28352997    -0.28610
C721        C  0.04509848  0.74824406  0.29268366    -0.04710
C722        C  0.03451476  0.76841782  0.28275996     0.07510
C723        C  0.05804001  0.78432367  0.26752789     0.01300
H724        H  0.03260954  0.73100990  0.30512706     0.08950
H725        H  0.05706321  0.80034358  0.25576169     0.08030
N726        N  0.12542806  0.69925941  0.29128561    -0.35800
N727        N  0.14715578  0.70006440  0.27780456    -0.27980
C728        C  0.15793104  0.67815662  0.28350894    -0.03220
C729        C  0.14175568  0.66263333  0.30127340     0.05390
C730        C  0.12155137  0.67682825  0.30573796     0.03480
H731        H  0.17474920  0.67252587  0.27485392     0.08590
H732        H  0.10445272  0.67062004  0.31831392     0.07420
N733        N  0.27407636  0.76918992  0.22838865    -0.26970
N734        N  0.29155456  0.75301031  0.22595649    -0.34830
C735        C  0.28728228  0.74101447  0.20718432     0.01370
C736        C  0.26581446  0.74972959  0.19734460     0.07400
C737        C  0.25797522  0.76752819  0.21127838    -0.05700
H738        H  0.29972428  0.72780950  0.20098522     0.08060
H739        H  0.24360930  0.78040991  0.20902121     0.09260
Cu740      Cu  0.32352048  0.75115572  0.24724378     0.44170
Cu741      Cu  0.27622404  0.79730084  0.25364013     0.41990
Cu742      Cu  0.34059457  0.80751368  0.28898463     0.43880
N743        N  0.36048614  0.76072368  0.26835122    -0.34360
N744        N  0.36782129  0.78275205  0.28324765    -0.28610
C745        C  0.39640682  0.78770643  0.29242361    -0.04710
C746        C  0.40707811  0.76728229  0.28301377     0.07510
C747        C  0.38385441  0.75057992  0.26781336     0.01300
H748        H  0.40932250  0.80600772  0.30439522     0.08950
H749        H  0.38539643  0.73447334  0.25628832     0.08030
N750        N  0.31211635  0.83168748  0.29172152    -0.35800
N751        N  0.28828770  0.82818808  0.27897974    -0.27980
C752        C  0.27674755  0.84953426  0.28451611    -0.03220
C753        C  0.29454992  0.86750035  0.30142837     0.05390
C754        C  0.31648430  0.85520344  0.30559934     0.03480
H755        H  0.25821775  0.85311814  0.27624411     0.08590
H756        H  0.33502450  0.86334703  0.31754750     0.07420
C757        C  0.50159256  0.79913948  0.28024954    -0.20990
C758        C  0.00236398  0.76902081  0.28540019    -0.09030
C759        C  0.47168448  0.73903934  0.29128606     0.29830
C760        C  0.44070861  0.73896186  0.29108222    -0.20990
C761        C  0.44003636  0.76881083  0.28543438    -0.09040
C762        C  0.47070566  0.79915514  0.28036526     0.29840
F763        F  0.47045223  0.82811855  0.27442310    -0.19560
H764        H  0.02486445  0.82250571  0.27568944     0.18200
H765        H  0.41706366  0.71533126  0.29486945     0.18210
F766        F  0.47108816  0.70914266  0.29594216    -0.19550
C767        C  0.11131919  0.57875984  0.32952607    -0.20990
C768        C  0.14204062  0.57889009  0.33271885    -0.09030
C769        C  0.17302264  0.60680340  0.32550802     0.29830
C770        C  0.17290825  0.63388090  0.31492361    -0.20990
C771        C  0.14208307  0.63386154  0.31198295    -0.09040
C772        C  0.11127152  0.60605024  0.31947307     0.29840
F773        F  0.08082977  0.60457809  0.31652669    -0.19560
H774        H  0.08718267  0.55743121  0.33495032     0.18200
H775        H  0.19689570  0.65507846  0.30925599     0.18210
F776        F  0.20306552  0.60730843  0.32815118    -0.19550
C777        C  0.26255178  0.89634043  0.31359579    -0.20990
C778        C  0.29361624  0.89648983  0.31154520    -0.09030
C779        C  0.32401458  0.92483482  0.31912411     0.29830
C780        C  0.32328077  0.95238843  0.32840965    -0.20990
C781        C  0.29231234  0.95208502  0.33069024    -0.09040
C782        C  0.26176843  0.92375341  0.32335920     0.29840
F783        F  0.23151668  0.92313010  0.32510198    -0.19560
H784        H  0.23886882  0.87482087  0.30783473     0.18200
H785        H  0.34707258  0.97405814  0.33396391     0.18210
F786        F  0.35476809  0.92666647  0.31698493    -0.19550
C787        C  0.49693545  0.76767919  0.35995260    -0.20990
C788        C  0.49521605  0.79817743  0.35875369    -0.09030
C789        C  0.46304373  0.79559934  0.35648840     0.29830
C790        C  0.43306680  0.76296407  0.35636416    -0.20990
C791        C  0.43479200  0.73253773  0.35798171    -0.09040
C792        C  0.46702067  0.73504789  0.35934979     0.29840
F793        F  0.46948362  0.70611385  0.36143536    -0.19560
H794        H  0.02149362  0.76917713  0.36177566     0.18200
H795        H  0.40837639  0.76142101  0.35539897     0.18210
F796        F  0.46034982  0.82453509  0.35573326    -0.19550
C797        C  0.21598340  0.97719067  0.95080700    -0.20990
C798        C  0.18617608  0.97946407  0.95237694    -0.09030
C799        C  0.18936084  0.51242981  0.95402233     0.29830
C800        C  0.22181287  0.54251404  0.95326949    -0.20990
C801        C  0.25152487  0.54018558  0.95137582    -0.09040
C802        C  0.24844828  0.50724041  0.95052214     0.29840
F803        F  0.27661225  0.50411930  0.94811941    -0.19560
H804        H  0.21406081  0.95205559  0.94941826     0.18200
H805        H  0.22375057  0.56773413  0.95380835     0.18210
F806        F  0.16112564  0.51571486  0.95506309    -0.19550
C807        C  0.22033484  0.80549049  0.14779081    -0.20990
C808        C  0.19461170  0.79922264  0.13393239    -0.09030
C809        C  0.16063608  0.78568433  0.14058729     0.29830
C810        C  0.15278682  0.77893513  0.16080495    -0.20990
C811        C  0.17860595  0.78564212  0.17467693    -0.09040
C812        C  0.21255198  0.79933183  0.16803054     0.29840
F813        F  0.23858764  0.80895408  0.18112010    -0.19560
H814        H  0.24680685  0.81664405  0.14307053     0.18200
H815        H  0.12647602  0.76849721  0.16567050     0.18210
F816        F  0.13497259  0.77870870  0.12755572    -0.19550
C817        C  0.37936401  0.83597219  0.96857188    -0.20990
C818        C  0.40665581  0.83669642  0.97901214    -0.09030
C819        C  0.40581684  0.83599656  0.99993943     0.29830
C820        C  0.37893091  0.83615050  0.01017456    -0.20990
C821        C  0.35274031  0.83758527  0.99975193    -0.09040
C822        C  0.35275078  0.83671745  0.97881760     0.29840
F823        F  0.32711195  0.83666931  0.96825581    -0.19560
H824        H  0.37931265  0.83621640  0.95246277     0.18200
H825        H  0.37934679  0.83653349  0.02628149     0.18210
F826        F  0.43102484  0.83524975  0.01052374    -0.19550
C827        C  0.27317242  0.74702099  0.14137584    -0.20990
C828        C  0.23872356  0.73162961  0.13538243    -0.09030
C829        C  0.21323184  0.72327640  0.14986165     0.29830
C830        C  0.22218955  0.72939331  0.17001808    -0.20990
C831        C  0.25660063  0.74448142  0.17601068    -0.09040
C832        C  0.28211575  0.75358628  0.16147498     0.29840
F833        F  0.31572176  0.76894860  0.16670574    -0.19560
H834        H  0.29321949  0.75377489  0.13044128     0.18200
H835        H  0.20203488  0.72103943  0.18095224     0.18210
F836        F  0.17956713  0.70740368  0.14469256    -0.19550
C837        C  0.05555145  0.71751318  0.98373013    -0.20990
C838        C  0.02989495  0.68650101  0.97502077    -0.09030
C839        C  0.03158109  0.65608913  0.97706948     0.29830
C840        C  0.05808243  0.65650681  0.98791726    -0.20990
C841        C  0.08320439  0.68707679  0.99727204    -0.09040
C842        C  0.08187713  0.71778742  0.99501755     0.29840
F843        F  0.10611775  0.74801186  0.00347803    -0.19560
H844        H  0.05459792  0.74120230  0.98227531     0.18200
H845        H  0.05836886  0.63248060  0.98941113     0.18210
F846        F  0.00758735  0.62587705  0.96846292    -0.19550
C847        C  0.19127776  0.98513263  0.03178589    -0.20990
C848        C  0.22303089  0.98707506  0.02901934    -0.09030
C849        C  0.25267736  0.51986917  0.02616615     0.29830
C850        C  0.25052982  0.55009554  0.02680014    -0.20990
C851        C  0.21879533  0.54801766  0.02973503    -0.09040
C852        C  0.18904567  0.51524889  0.03195484     0.29840
F853        F  0.15810758  0.51246216  0.03533463    -0.19560
H854        H  0.16813263  0.96019175  0.03405256     0.18200
H855        H  0.27371094  0.57521868  0.02514094     0.18210
F856        F  0.28394529  0.52294174  0.02383891    -0.19550
C857        C  0.38595344  0.70303193  0.80715677    -0.20990
C858        C  0.40968580  0.73646063  0.80016054    -0.09030
C859        C  0.43346290  0.76111860  0.81358975     0.29830
C860        C  0.43303514  0.75240825  0.83361260    -0.20990
C861        C  0.40887187  0.71926274  0.84066752    -0.09040
C862        C  0.38545755  0.69445293  0.82719200     0.29840
F863        F  0.36233559  0.66175701  0.83330673    -0.19560
H864        H  0.36758466  0.68345848  0.79709313     0.18200
H865        H  0.45082028  0.77207756  0.84372371     0.18210
F866        F  0.45576387  0.79419927  0.80772523    -0.19550
C867        C  0.03306488  0.81343220  0.80997183    -0.20990
C868        C  0.02061559  0.77866794  0.80457311    -0.09030
C869        C  0.50980756  0.75310093  0.81943325     0.29830
C870        C  0.51198146  0.76244390  0.83947243    -0.20990
C871        C  0.52374544  0.79708248  0.84483281    -0.09040
C872        C  0.03419840  0.82256514  0.82997818     0.29840
F873        F  0.04564334  0.85623646  0.83486679    -0.19560
H874        H  0.04167566  0.83341856  0.79865384     0.18200
H875        H  0.50502477  0.74273012  0.85077330     0.18210
F876        F  0.49867948  0.71946234  0.81461928    -0.19550
C877        C  0.21064704  0.78791387  0.70004274    -0.20990
C878        C  0.18045965  0.75522490  0.69906228    -0.09030
C879        C  0.18310460  0.72522259  0.69725395     0.29830
C880        C  0.21540056  0.72799815  0.69703692    -0.20990
C881        C  0.24553114  0.76067394  0.69805774    -0.09040
C882        C  0.24294101  0.79072980  0.69929605     0.29840
F883        F  0.27155271  0.82265446  0.70084595    -0.19560
H884        H  0.20919420  0.81132662  0.70152495     0.18200
H885        H  0.21691944  0.70454801  0.69622241     0.18210
F886        F  0.15455550  0.69311942  0.69675056    -0.19550
C887        C  0.15717197  0.94308567  0.50331693    -0.20990
C888        C  0.19181028  0.96041601  0.50907613    -0.09030
C889        C  0.21742455  0.97826401  0.49468793     0.29830
C890        C  0.20836193  0.97848763  0.47483591    -0.20990
C891        C  0.17378407  0.96083542  0.46904082    -0.09040
C892        C  0.14816482  0.94327112  0.48344878     0.29840
F893        F  0.11446029  0.92628747  0.47828060    -0.19560
H894        H  0.13708424  0.92919633  0.51421681     0.18200
H895        H  0.22846847  0.49117417  0.46390660     0.18210
F896        F  0.25118214  0.49358490  0.49955819    -0.19550
C897        C  0.37630115  0.59837632  0.63583764    -0.20990
C898        C  0.34740216  0.57149376  0.64541347    -0.09030
C899        C  0.34510745  0.57203740  0.66626506     0.29830
C900        C  0.37208594  0.59817583  0.67735323    -0.20990
C901        C  0.40199796  0.62382839  0.66785809    -0.09040
C902        C  0.40351591  0.62419306  0.64692298     0.29840
F903        F  0.43133268  0.64937823  0.63713843    -0.19560
H904        H  0.37846916  0.59860487  0.61978484     0.18200
H905        H  0.37013117  0.59748836  0.69341935     0.18210
F906        F  0.31686668  0.54720179  0.67592381    -0.19550
C907        C  0.04832540  0.91908038  0.63144006    -0.20990
C908        C  0.07653661  0.94683896  0.64101770    -0.09030
C909        C  0.07861773  0.94669464  0.66190773     0.29830
C910        C  0.05214279  0.91999301  0.67298616    -0.20990
C911        C  0.02290494  0.89340048  0.66345390    -0.09040
C912        C  0.02156132  0.89273284  0.64252852     0.29840
F913        F  0.49432759  0.86669247  0.63277952    -0.19560
H914        H  0.04628496  0.91852359  0.61537723     0.18200
H915        H  0.05387990  0.92090345  0.68906518     0.18210
F916        F  0.10614784  0.97243916  0.67162475    -0.19550
C917        C  0.17890102  0.72859844  0.61033542    -0.20990
C918        C  0.20934718  0.72737574  0.60987938    -0.09030
C919        C  0.24111556  0.75863903  0.61031218     0.29830
C920        C  0.24227453  0.79057056  0.61114082    -0.20990
C921        C  0.21183664  0.79182734  0.61087466    -0.09040
C922        C  0.18006660  0.76055102  0.61049145     0.29840
F923        F  0.15018828  0.76090311  0.61035373    -0.19560
H924        H  0.15416599  0.70477008  0.60989826     0.18200
H925        H  0.26701698  0.81440465  0.61130877     0.18210
F926        F  0.27098687  0.75827910  0.61003310    -0.19550
C927        C  0.26352824  0.56866142  0.49971209    -0.20990
C928        C  0.23108523  0.56357631  0.50452286    -0.09030
C929        C  0.20835013  0.56001506  0.48924164     0.29830
C930        C  0.21835145  0.56226720  0.46934934    -0.20990
C931        C  0.25061798  0.56690889  0.46451690    -0.09040
C932        C  0.27310340  0.56980359  0.47979560     0.29840
F933        F  0.30440110  0.57418530  0.47542270    -0.19560
H934        H  0.28134555  0.57165561  0.51139884     0.18200
H935        H  0.20114330  0.56098913  0.45774144     0.18210
F936        F  0.17719772  0.55602862  0.49359062    -0.19550
N937        N  0.69452414  0.05243896  0.55409194    -0.26970
N938        N  0.71857724  0.08575018  0.55449657    -0.34830
C939        C  0.73608159  0.09413541  0.53726894     0.01370
C940        C  0.72220236  0.06487767  0.52539759     0.07400
C941        C  0.69570281  0.03894566  0.53637607    -0.05700
H942        H  0.75607868  0.12011812  0.53321903     0.08060
H943        H  0.67819590  0.51246244  0.53171443     0.09260
Cu944      Cu  0.72293863  0.12026298  0.57653080     0.44170
Cu945      Cu  0.66097291  0.02716087  0.57755013     0.41990
Cu946      Cu  0.66192824  0.08448896  0.61615067     0.43880
N947        N  0.71319291  0.15060377  0.59573050    -0.34360
N948        N  0.68932083  0.13723429  0.60968981    -0.28610
C949        C  0.68505202  0.16264677  0.61740932    -0.04710
C950        C  0.70772511  0.19358491  0.60803837     0.07510
C951        C  0.72518380  0.18497301  0.59439884     0.01300
H952        H  0.66611000  0.15870270  0.62855269     0.08950
H953        H  0.74342989  0.20192693  0.58334664     0.08030
N954        N  0.63614070  0.03071615  0.61864419    -0.35800
N955        N  0.63461899  0.00962473  0.60432235    -0.27980
C956        C  0.61396589  0.47648546  0.61020528    -0.03220
C957        C  0.60233361  0.47677615  0.62925700     0.05390
C958        C  0.61692871  0.01162074  0.63409168     0.03480
H959        H  0.60764363  0.45388262  0.60120706     0.08590
H960        H  0.61264289  0.02237255  0.64747645     0.07420
N961        N  0.72807597  0.46897953  0.55863328    -0.26970
N962        N  0.70368478  0.43581556  0.55868362    -0.34830
C963        C  0.68642447  0.42823414  0.54140302     0.01370
C964        C  0.70090934  0.45787839  0.52980141     0.07400
C965        C  0.72729360  0.48324862  0.54115677    -0.05700
H966        H  0.66611831  0.40251666  0.53714278     0.08060
H967        H  0.74487840  0.00998412  0.53697220     0.09260
Cu968      Cu  0.69848794  0.40055498  0.58035770     0.44170
Cu969      Cu  0.76169525  0.99307781  0.58211311     0.41990
Cu970      Cu  0.75976906  0.43448750  0.62003862     0.43880
N971        N  0.70803788  0.36937102  0.59887110    -0.34360
N972        N  0.73198920  0.38199419  0.61280268    -0.28610
C973        C  0.73622894  0.35614120  0.61980572    -0.04710
C974        C  0.71346618  0.32571593  0.60998374     0.07510
C975        C  0.69598483  0.33509375  0.59684275     0.01300
H976        H  0.75527317  0.35947974  0.63072022     0.08950
H977        H  0.67776077  0.31879524  0.58558855     0.08030
N978        N  0.78632802  0.48827009  0.62294810    -0.35800
N979        N  0.78824329  0.00974265  0.60877675    -0.27980
C980        C  0.80945475  0.04271095  0.61473355    -0.03220
C981        C  0.82103284  0.04194356  0.63369923     0.05390
C982        C  0.80584060  0.00699734  0.63841426     0.03480
H983        H  0.81620972  0.06550916  0.60583255     0.08590
H984        H  0.80996672  0.49593113  0.65170189     0.07420
N985        N  0.00797669  0.24219107  0.75471757    -0.26970
N986        N  0.54104379  0.26598474  0.75421492    -0.34830
C987        C  0.54993902  0.28349360  0.77151590     0.01370
C988        C  0.52130280  0.26975562  0.78358982     0.07400
C989        C  0.99513479  0.24349916  0.77257087    -0.05700
H990        H  0.57586064  0.30320992  0.77550745     0.08060
H991        H  0.96890641  0.22623169  0.77730118     0.09260
Cu992      Cu  0.57456787  0.26943526  0.73210233     0.44170
Cu993      Cu  0.98231155  0.20849726  0.73130762     0.41990
Cu994      Cu  0.53853455  0.20594134  0.69344652     0.43880
N995        N  0.60421154  0.25851501  0.71327476    -0.34360
N996        N  0.59082924  0.23381939  0.69961174    -0.28610
C997        C  0.61590326  0.22939959  0.69192602    -0.04710
C998        C  0.64660454  0.25264560  0.70113940     0.07510
C999        C  0.63817970  0.27079038  0.71450480     0.01300
H1000       H  0.61190405  0.21015697  0.68080358     0.08950
H1001       H  0.65509586  0.28992572  0.72523864     0.08030
N1002       N  0.98541573  0.18110745  0.69082238    -0.35800
N1003       N  0.96479613  0.18125941  0.70475103    -0.27980
C1004       C  0.93202479  0.16158893  0.69863738    -0.03220
C1005       C  0.93202047  0.14872462  0.67985045     0.05390
C1006       C  0.96635591  0.16162110  0.67543328     0.03480
H1007       H  0.90985747  0.15692209  0.70727822     0.08590
H1008       H  0.97677276  0.15622350  0.66232652     0.07420
N1009       N  0.92001747  0.27209580  0.74993678    -0.26970
N1010       N  0.88660371  0.24970431  0.75033662    -0.34830
C1011       C  0.87832219  0.23301954  0.76787774     0.01370
C1012       C  0.90782079  0.24563406  0.77922686     0.07400
C1013       C  0.93384398  0.27037005  0.76732983    -0.05700
H1014       H  0.85233830  0.21447873  0.77245564     0.08060
H1015       H  0.96075553  0.28640956  0.77108049     0.09260
Cu1016     Cu  0.85236576  0.24643725  0.72880569     0.44170
Cu1017     Cu  0.94472492  0.30534708  0.72623557     0.41990
Cu1018     Cu  0.88710788  0.30974316  0.68997215     0.43880
N1019       N  0.82211014  0.25705163  0.71040441    -0.34360
N1020       N  0.83499131  0.28191076  0.69683308    -0.28610
C1021       C  0.80961469  0.28644018  0.68976587    -0.04710
C1022       C  0.77928538  0.26295128  0.69921062     0.07510
C1023       C  0.78818407  0.24466091  0.71211332     0.01300
H1024       H  0.81315104  0.30598755  0.67898491     0.08950
H1025       H  0.77169078  0.22549854  0.72295352     0.08030
N1026       N  0.94019102  0.33455121  0.68664106    -0.35800
N1027       N  0.96125594  0.33387039  0.70006734    -0.27980
C1028       C  0.99385448  0.35408134  0.69379008    -0.03220
C1029       C  0.99327919  0.36775271  0.67538680     0.05390
C1030       C  0.95881464  0.35481511  0.67136064     0.03480
H1031       H  0.51630499  0.35858287  0.70206120     0.08590
H1032       H  0.94806606  0.36076549  0.65862783     0.07420
N1033       N  0.70395285  0.20883981  0.08486639    -0.26970
N1034       N  0.72707370  0.19894215  0.08467835    -0.34830
C1035       C  0.74342189  0.20675083  0.10225653     0.01370
C1036       C  0.72974250  0.22178709  0.11430505     0.07400
C1037       C  0.70459466  0.22256507  0.10286154    -0.05700
H1038       H  0.76252849  0.20006431  0.10637950     0.08060
H1039       H  0.68778335  0.23205858  0.10732318     0.09260
Cu1040     Cu  0.73197144  0.16924144  0.06264851     0.44170
Cu1041     Cu  0.67208092  0.20237002  0.06076695     0.41990
Cu1042     Cu  0.66894519  0.13999243  0.02492270     0.43880
N1043       N  0.72238718  0.12854205  0.04379209    -0.34360
N1044       N  0.69751671  0.11650717  0.03044360    -0.28610
C1045       C  0.69333422  0.08678953  0.02271091    -0.04710
C1046       C  0.71702571  0.08001284  0.03149289     0.07510
C1047       C  0.73511861  0.10706104  0.04474830     0.01300
H1048       H  0.67368926  0.07066881  0.01204654     0.08950
H1049       H  0.75424769  0.10949260  0.05534759     0.08030
N1050       N  0.64375483  0.16750346  0.02131852    -0.35800
N1051       N  0.64474432  0.19056694  0.03408687    -0.27980
C1052       C  0.62459473  0.20253405  0.02717201    -0.03220
C1053       C  0.61013765  0.18591938  0.00927464     0.05390
C1054       C  0.62298920  0.16399487  0.00612248     0.03480
H1055       H  0.61958233  0.22066611  0.03505145     0.08590
H1056       H  0.61711960  0.14612698  0.99385391     0.07420
N1057       N  0.73201463  0.32397589  0.08428789    -0.26970
N1058       N  0.70902357  0.33395291  0.08364123    -0.34830
C1059       C  0.69130277  0.32525144  0.10077806     0.01370
C1060       C  0.70383006  0.30919334  0.11291789     0.07400
C1061       C  0.72984884  0.30906840  0.10204525    -0.05700
H1062       H  0.67233915  0.33229591  0.10461274     0.08060
H1063       H  0.74651325  0.29960324  0.10684845     0.09260
Cu1064     Cu  0.70690208  0.36474277  0.06141636     0.44170
Cu1065     Cu  0.76589952  0.33253871  0.06118540     0.41990
Cu1066     Cu  0.76914817  0.39127697  0.02235461     0.43880
N1067       N  0.71841779  0.40576985  0.04254698    -0.34360
N1068       N  0.74243134  0.41675372  0.02868444    -0.28610
C1069       C  0.74725992  0.44688144  0.02112251    -0.04710
C1070       C  0.72503233  0.45507047  0.03068337     0.07510
C1071       C  0.70706421  0.42827811  0.04407445     0.01300
H1072       H  0.76612603  0.46204962  0.00988156     0.08950
H1073       H  0.68869247  0.42645206  0.05505886     0.08030
N1074       N  0.79369743  0.36258328  0.02056402    -0.35800
N1075       N  0.79345923  0.34216804  0.03491312    -0.27980
C1076       C  0.81357606  0.32933254  0.02953227    -0.03220
C1077       C  0.82680939  0.34193133  0.01079176     0.05390
C1078       C  0.81364471  0.36293530  0.00559450     0.03480
H1079       H  0.81847010  0.31236534  0.03869129     0.08590
H1080       H  0.81937561  0.37862484  0.99231883     0.07420
N1081       N  0.92160490  0.20516250  0.89282188    -0.26970
N1082       N  0.88769384  0.18870000  0.89186827    -0.34830
C1083       C  0.87812944  0.19169684  0.87339903     0.01370
C1084       C  0.90732900  0.21107399  0.86209166     0.07400
C1085       C  0.93441074  0.21934410  0.87492155    -0.05700
H1086       H  0.85173567  0.17990188  0.86847671     0.08060
H1087       H  0.96136533  0.23312309  0.87132179     0.09260
Cu1088     Cu  0.85503003  0.15873009  0.91438535     0.44170
Cu1089     Cu  0.94885133  0.20378727  0.91753241     0.41990
Cu1090     Cu  0.89392361  0.13439344  0.95187508     0.43880
N1091       N  0.82676486  0.11972003  0.93460252    -0.34360
N1092       N  0.84116891  0.10912864  0.94778431    -0.28610
C1093       C  0.81655531  0.07988218  0.95651630    -0.04710
C1094       C  0.78514865  0.07204075  0.94853818     0.07510
C1095       C  0.79260303  0.09792881  0.93475554     0.01300
H1096       H  0.82127788  0.06488233  0.96736495     0.08950
H1097       H  0.77482539  0.09932761  0.92454345     0.08030
N1098       N  0.94688740  0.16465541  0.95450011    -0.35800
N1099       N  0.96718003  0.19070125  0.94258444    -0.27980
C1100       C  0.50002909  0.20389418  0.94855094    -0.03220
C1101       C  0.50018276  0.18488227  0.96482228     0.05390
C1102       C  0.96612576  0.16033089  0.96811889     0.03480
H1103       H  0.52219235  0.22445762  0.94097799     0.08590
H1104       H  0.95608307  0.14015812  0.97933773     0.07420
N1105       N  0.01351884  0.31997317  0.89525743    -0.26970
N1106       N  0.54678208  0.33109086  0.89505067    -0.34830
C1107       C  0.55524293  0.32363632  0.87729568     0.01370
C1108       C  0.02584885  0.30676881  0.86589233     0.07400
C1109       C  0.99994341  0.30517552  0.87763386    -0.05700
H1110       H  0.58110452  0.33121396  0.87274400     0.08060
H1111       H  0.97347550  0.29538878  0.87355886     0.09260
Cu1112     Cu  0.58001313  0.36038210  0.91755731     0.44170
Cu1113     Cu  0.98827662  0.32757077  0.91876428     0.41990
Cu1114     Cu  0.54367150  0.38599388  0.95714776     0.43880
N1115       N  0.60925406  0.39951831  0.93756506    -0.34360
N1116       N  0.59608463  0.41032207  0.95145673    -0.28610
C1117       C  0.62152023  0.43978786  0.95958672    -0.04710
C1118       C  0.65214193  0.44763201  0.95043160     0.07510
C1119       C  0.64333987  0.42140515  0.93664994     0.01300
H1120       H  0.61779196  0.45492883  0.97083065     0.08950
H1121       H  0.66007355  0.41980900  0.92570805     0.08030
N1122       N  0.99034399  0.35893934  0.95874864    -0.35800
N1123       N  0.97002971  0.33841114  0.94447168    -0.27980
C1124       C  0.93711668  0.32672197  0.94956169    -0.03220
C1125       C  0.93668006  0.34016264  0.96808054     0.05390
C1126       C  0.97090290  0.36048993  0.97341172     0.03480
H1127       H  0.91516837  0.30986573  0.94039753     0.08590
H1128       H  0.98104415  0.37642517  0.98659848     0.07420
N1129       N  0.77175162  0.05846769  0.41333002    -0.26970
N1130       N  0.78529361  0.09255200  0.41460612    -0.34830
C1131       C  0.77932645  0.10060840  0.43289463     0.01370
C1132       C  0.76124378  0.07017180  0.44358980     0.07400
C1133       C  0.75715245  0.04400930  0.43083379    -0.05700
H1134       H  0.78846270  0.12677576  0.43821041     0.08060
H1135       H  0.74515873  0.51656732  0.43397143     0.09260
Cu1136     Cu  0.81553930  0.12709952  0.39272284     0.44170
Cu1137     Cu  0.77514185  0.03272790  0.38847775     0.41990
Cu1138     Cu  0.84160646  0.08914368  0.35439928     0.43880
N1139       N  0.85504208  0.15614432  0.37302033    -0.34360
N1140       N  0.86593942  0.14210672  0.35970039    -0.28610
C1141       C  0.89529005  0.16727642  0.35154959    -0.04710
C1142       C  0.90294841  0.19867251  0.36003300     0.07510
C1143       C  0.87684173  0.19067918  0.37351161     0.01300
H1144       H  0.91049732  0.16287267  0.34077765     0.08950
H1145       H  0.87525254  0.20825989  0.38397649     0.08030
N1146       N  0.81242768  0.03573227  0.35096262    -0.35800
N1147       N  0.78717261  0.01481130  0.36300153    -0.27980
C1148       C  0.77441501  0.48169659  0.35692083    -0.03220
C1149       C  0.79285509  0.48198905  0.34038020     0.05390
C1150       C  0.81676093  0.01661620  0.33710355     0.03480
H1151       H  0.75484721  0.45905584  0.36472845     0.08590
H1152       H  0.83672661  0.02706721  0.32590163     0.07420
N1153       N  0.65796447  0.47173080  0.41704054    -0.26970
N1154       N  0.64108165  0.43743516  0.41858933    -0.34830
C1155       C  0.64440504  0.42853284  0.43718846     0.01370
C1156       C  0.66457247  0.45857748  0.44786246     0.07400
C1157       C  0.67269365  0.98548175  0.43468685    -0.05700
H1158       H  0.63246932  0.40208731  0.44263323     0.08060
H1159       H  0.68691899  0.01295261  0.43784808     0.09260
Cu1160     Cu  0.61093466  0.40360269  0.39652049     0.44170
Cu1161     Cu  0.65722095  0.99825483  0.39170334     0.41990
Cu1162     Cu  0.58992736  0.44185603  0.35687390     0.43880
N1163       N  0.57317013  0.37455020  0.37602220    -0.34360
N1164       N  0.56401162  0.38875329  0.36187730    -0.28610
C1165       C  0.53555107  0.36371431  0.35286613    -0.04710
C1166       C  0.52663312  0.33221268  0.36174291     0.07510
C1167       C  0.55116148  0.34008050  0.37628978     0.01300
H1168       H  0.52189026  0.36827413  0.34114955     0.08950
H1169       H  0.55157049  0.32244082  0.38718211     0.08030
N1170       N  0.62025537  0.49525916  0.35379688    -0.35800
N1171       N  0.64552203  0.01604278  0.36590642    -0.27980
C1172       C  0.65878785  0.04916253  0.35965267    -0.03220
C1173       C  0.64068142  0.04898437  0.34296002     0.05390
C1174       C  0.61648649  0.01444771  0.33976700     0.03480
H1175       H  0.67858286  0.07176538  0.36738629     0.08590
H1176       H  0.59675924  0.00407842  0.32842617     0.07420
N1177       N  0.66077330  0.25772021  0.22652752    -0.26970
N1178       N  0.64671563  0.27743042  0.22528925    -0.34830
C1179       C  0.65157913  0.29087219  0.20686842     0.01370
C1180       C  0.66993098  0.27946643  0.19600589     0.07400
C1181       C  0.67494994  0.25820488  0.20885485    -0.05700
H1182       H  0.64160375  0.30695677  0.20160108     0.08060
H1183       H  0.68617768  0.24253985  0.20543241     0.09260
Cu1184     Cu  0.61762609  0.28188075  0.24743729     0.44170
Cu1185     Cu  0.65770296  0.22847229  0.25148811     0.41990
Cu1186     Cu  0.59911813  0.22582358  0.28916610     0.43880
N1187       N  0.58095240  0.27364727  0.26839402    -0.34360
N1188       N  0.57329747  0.25209439  0.28352996    -0.28610
C1189       C  0.54509847  0.24824407  0.29268365    -0.04710
C1190       C  0.53451476  0.26841783  0.28275995     0.07510
C1191       C  0.55804001  0.28432368  0.26752788     0.01300
H1192       H  0.53260953  0.23100992  0.30512706     0.08950
H1193       H  0.55706321  0.30034359  0.25576168     0.08030
N1194       N  0.62542803  0.19925939  0.29128560    -0.35800
N1195       N  0.64715575  0.20006438  0.27780455    -0.27980
C1196       C  0.65793102  0.17815661  0.28350894    -0.03220
C1197       C  0.64175566  0.16263331  0.30127339     0.05390
C1198       C  0.62155135  0.17682824  0.30573795     0.03480
H1199       H  0.67474917  0.17252586  0.27485391     0.08590
H1200       H  0.60445270  0.17062003  0.31831391     0.07420
N1201       N  0.77407636  0.26918992  0.22838865    -0.26970
N1202       N  0.79155457  0.25301033  0.22595649    -0.34830
C1203       C  0.78728230  0.24101450  0.20718432     0.01370
C1204       C  0.76581446  0.24972960  0.19734460     0.07400
C1205       C  0.75797521  0.26752819  0.21127838    -0.05700
H1206       H  0.79972431  0.22780954  0.20098522     0.08060
H1207       H  0.74360928  0.28040990  0.20902121     0.09260
Cu1208     Cu  0.82352050  0.25115575  0.24724379     0.44170
Cu1209     Cu  0.77622402  0.29730084  0.25364013     0.41990
Cu1210     Cu  0.84059454  0.30751367  0.28898464     0.43880
N1211       N  0.86048614  0.26072370  0.26835123    -0.34360
N1212       N  0.86782127  0.28275205  0.28324767    -0.28610
C1213       C  0.89640679  0.28770643  0.29242363    -0.04710
C1214       C  0.90707809  0.26728230  0.28301380     0.07510
C1215       C  0.88385441  0.25057994  0.26781338     0.01300
H1216       H  0.90932245  0.30600771  0.30439525     0.08950
H1217       H  0.88539645  0.23447337  0.25628833     0.08030
N1218       N  0.81211632  0.33168748  0.29172153    -0.35800
N1219       N  0.78828767  0.32818807  0.27897974    -0.27980
C1220       C  0.77674752  0.34953426  0.28451611    -0.03220
C1221       C  0.79454988  0.36750034  0.30142837     0.05390
C1222       C  0.81648426  0.35520343  0.30559935     0.03480
H1223       H  0.75821773  0.35311814  0.27624411     0.08590
H1224       H  0.83502446  0.36334702  0.31754751     0.07420
C1225       C  0.00159254  0.29913948  0.28024958    -0.20990
C1226       C  0.50236399  0.26902084  0.28540019    -0.09030
C1227       C  0.97168445  0.23903934  0.29128610     0.29830
C1228       C  0.94070858  0.23896187  0.29108226    -0.20990
C1229       C  0.94003634  0.26881084  0.28543442    -0.09040
C1230       C  0.97070564  0.29915515  0.28036529     0.29840
F1231       F  0.97045222  0.32811856  0.27442313    -0.19560
H1232       H  0.52486446  0.32250573  0.27568941     0.18200
H1233       H  0.91706364  0.21533128  0.29486949     0.18210
F1234       F  0.97108813  0.20914266  0.29594221    -0.19550
C1235       C  0.61131919  0.07875984  0.32952607    -0.20990
C1236       C  0.64204062  0.07889009  0.33271884    -0.09030
C1237       C  0.67302264  0.10680340  0.32550801     0.29830
C1238       C  0.67290823  0.13388089  0.31492360    -0.20990
C1239       C  0.64208305  0.13386153  0.31198294    -0.09040
C1240       C  0.61127152  0.10605023  0.31947307     0.29840
F1241       F  0.58082976  0.10457808  0.31652670    -0.19560
H1242       H  0.58718267  0.05743121  0.33495032     0.18200
H1243       H  0.69689569  0.15507846  0.30925598     0.18210
F1244       F  0.70306551  0.10730844  0.32815117    -0.19550
C1245       C  0.76255175  0.39634043  0.31359579    -0.20990
C1246       C  0.79361620  0.39648983  0.31154519    -0.09030
C1247       C  0.82401455  0.42483482  0.31912411     0.29830
C1248       C  0.82328074  0.45238843  0.32840965    -0.20990
C1249       C  0.79231231  0.45208502  0.33069023    -0.09040
C1250       C  0.76176840  0.42375341  0.32335920     0.29840
F1251       F  0.73151665  0.42313010  0.32510198    -0.19560
H1252       H  0.73886878  0.37482087  0.30783472     0.18200
H1253       H  0.84707255  0.47405815  0.33396390     0.18210
F1254       F  0.85476805  0.42666647  0.31698492    -0.19550
C1255       C  0.99693543  0.26767919  0.35995259    -0.20990
C1256       C  0.99521603  0.29817743  0.35875368    -0.09030
C1257       C  0.96304372  0.29559934  0.35648839     0.29830
C1258       C  0.93306678  0.26296407  0.35636416    -0.20990
C1259       C  0.93479197  0.23253773  0.35798171    -0.09040
C1260       C  0.96702065  0.23504789  0.35934978     0.29840
F1261       F  0.96948360  0.20611384  0.36143536    -0.19560
H1262       H  0.52149362  0.26917714  0.36177565     0.18200
H1263       H  0.90837637  0.26142102  0.35539897     0.18210
F1264       F  0.96034981  0.32453510  0.35573326    -0.19550
C1265       C  0.71598341  0.47719066  0.95080700    -0.20990
C1266       C  0.68617608  0.47946406  0.95237694    -0.09030
C1267       C  0.68936082  0.01242979  0.95402232     0.29830
C1268       C  0.72181285  0.04251403  0.95326949    -0.20990
C1269       C  0.75152485  0.04018557  0.95137582    -0.09040
C1270       C  0.74844827  0.00724040  0.95052214     0.29840
F1271       F  0.77661224  0.00411929  0.94811942    -0.19560
H1272       H  0.71406082  0.45205558  0.94941827     0.18200
H1273       H  0.72375055  0.06773411  0.95380834     0.18210
F1274       F  0.66112562  0.01571484  0.95506308    -0.19550
C1275       C  0.72033482  0.30549048  0.14779080    -0.20990
C1276       C  0.69461169  0.29922263  0.13393238    -0.09030
C1277       C  0.66063607  0.28568434  0.14058728     0.29830
C1278       C  0.65278681  0.27893513  0.16080494    -0.20990
C1279       C  0.67860593  0.28564211  0.17467692    -0.09040
C1280       C  0.71255196  0.29933180  0.16803053     0.29840
F1281       F  0.73858762  0.30895405  0.18112009    -0.19560
H1282       H  0.74680684  0.31664403  0.14307052     0.18200
H1283       H  0.62647601  0.26849721  0.16567049     0.18210
F1284       F  0.63497258  0.27870871  0.12755571    -0.19550
C1285       C  0.87936403  0.33597218  0.96857188    -0.20990
C1286       C  0.90665582  0.33669642  0.97901214    -0.09030
C1287       C  0.90581685  0.33599656  0.99993943     0.29830
C1288       C  0.87893092  0.33615051  0.01017456    -0.20990
C1289       C  0.85274032  0.33758527  0.99975193    -0.09040
C1290       C  0.85275079  0.33671744  0.97881760     0.29840
F1291       F  0.82711196  0.33666930  0.96825582    -0.19560
H1292       H  0.87931266  0.33621639  0.95246277     0.18200
H1293       H  0.87934681  0.33653350  0.02628149     0.18210
F1294       F  0.93102485  0.33524975  0.01052374    -0.19550
C1295       C  0.77317243  0.24702101  0.14137584    -0.20990
C1296       C  0.73872358  0.23162962  0.13538243    -0.09030
C1297       C  0.71323184  0.22327639  0.14986165     0.29830
C1298       C  0.72218955  0.22939330  0.17001808    -0.20990
C1299       C  0.75660064  0.24448143  0.17601068    -0.09040
C1300       C  0.78211576  0.25358630  0.16147498     0.29840
F1301       F  0.81572177  0.26894864  0.16670574    -0.19560
H1302       H  0.79321950  0.25377493  0.13044128     0.18200
H1303       H  0.70203489  0.22103941  0.18095224     0.18210
F1304       F  0.67956714  0.20740365  0.14469256    -0.19550
C1305       C  0.55555146  0.21751317  0.98373013    -0.20990
C1306       C  0.52989495  0.18650100  0.97502077    -0.09030
C1307       C  0.53158109  0.15608912  0.97706948     0.29830
C1308       C  0.55808243  0.15650680  0.98791727    -0.20990
C1309       C  0.58320439  0.18707678  0.99727204    -0.09040
C1310       C  0.58187713  0.21778741  0.99501756     0.29840
F1311       F  0.60611775  0.24801185  0.00347803    -0.19560
H1312       H  0.55459793  0.24120229  0.98227531     0.18200
H1313       H  0.55836886  0.13248059  0.98941113     0.18210
F1314       F  0.50758735  0.12587704  0.96846292    -0.19550
C1315       C  0.69127778  0.48513265  0.03178588    -0.20990
C1316       C  0.72303091  0.48707507  0.02901933    -0.09030
C1317       C  0.75267735  0.01986916  0.02616616     0.29830
C1318       C  0.75052982  0.05009553  0.02680014    -0.20990
C1319       C  0.71879533  0.04801766  0.02973504    -0.09040
C1320       C  0.68904566  0.01524889  0.03195485     0.29840
F1321       F  0.65810758  0.01246217  0.03533464    -0.19560
H1322       H  0.66813265  0.46019176  0.03405255     0.18200
H1323       H  0.77371093  0.07521866  0.02514094     0.18210
F1324       F  0.78394528  0.02294171  0.02383891    -0.19550
C1325       C  0.88595343  0.20303194  0.80715677    -0.20990
C1326       C  0.90968579  0.23646063  0.80016054    -0.09030
C1327       C  0.93346289  0.26111860  0.81358975     0.29830
C1328       C  0.93303513  0.25240825  0.83361260    -0.20990
C1329       C  0.90887185  0.21926275  0.84066752    -0.09040
C1330       C  0.88545753  0.19445293  0.82719201     0.29840
F1331       F  0.86233557  0.16175702  0.83330673    -0.19560
H1332       H  0.86758465  0.18345848  0.79709313     0.18200
H1333       H  0.95082027  0.27207756  0.84372372     0.18210
F1334       F  0.95576387  0.29419927  0.80772523    -0.19550
C1335       C  0.53306487  0.31343220  0.80997184    -0.20990
C1336       C  0.52061560  0.27866793  0.80457312    -0.09030
C1337       C  0.00980754  0.25310092  0.81943325     0.29830
C1338       C  0.01198144  0.26244388  0.83947243    -0.20990
C1339       C  0.02374544  0.29708247  0.84483281    -0.09040
C1340       C  0.53419839  0.32256513  0.82997819     0.29840
F1341       F  0.54564332  0.35623645  0.83486680    -0.19560
H1342       H  0.54167565  0.33341855  0.79865385     0.18200
H1343       H  0.00502474  0.24273011  0.85077330     0.18210
F1344       F  0.99867944  0.21946232  0.81461928    -0.19550
C1345       C  0.71064705  0.28791387  0.70004273    -0.20990
C1346       C  0.68045965  0.25522490  0.69906228    -0.09030
C1347       C  0.68310460  0.22522260  0.69725395     0.29830
C1348       C  0.71540057  0.22799815  0.69703692    -0.20990
C1349       C  0.74553114  0.26067394  0.69805774    -0.09040
C1350       C  0.74294101  0.29072981  0.69929605     0.29840
F1351       F  0.77155272  0.32265446  0.70084595    -0.19560
H1352       H  0.70919421  0.31132662  0.70152495     0.18200
H1353       H  0.71691944  0.20454802  0.69622241     0.18210
F1354       F  0.65455550  0.19311943  0.69675056    -0.19550
C1355       C  0.65717197  0.44308563  0.50331692    -0.20990
C1356       C  0.69181027  0.46041599  0.50907612    -0.09030
C1357       C  0.71742454  0.47826402  0.49468793     0.29830
C1358       C  0.70836191  0.47848764  0.47483591    -0.20990
C1359       C  0.67378406  0.46083540  0.46904081    -0.09040
C1360       C  0.64816481  0.44327108  0.48344877     0.29840
F1361       F  0.61446028  0.42628741  0.47828059    -0.19560
H1362       H  0.63708423  0.42919627  0.51421680     0.18200
H1363       H  0.72846848  0.99117416  0.46390661     0.18210
F1364       F  0.75118214  0.99358487  0.49955819    -0.19550
C1365       C  0.87630115  0.09837631  0.63583764    -0.20990
C1366       C  0.84740216  0.07149375  0.64541347    -0.09030
C1367       C  0.84510745  0.07203739  0.66626506     0.29830
C1368       C  0.87208594  0.09817582  0.67735323    -0.20990
C1369       C  0.90199796  0.12382838  0.66785809    -0.09040
C1370       C  0.90351591  0.12419306  0.64692299     0.29840
F1371       F  0.93133268  0.14937822  0.63713844    -0.19560
H1372       H  0.87846915  0.09860486  0.61978484     0.18200
H1373       H  0.87013117  0.09748834  0.69341935     0.18210
F1374       F  0.81686668  0.04720178  0.67592381    -0.19550
C1375       C  0.54832540  0.41908037  0.63144006    -0.20990
C1376       C  0.57653661  0.44683895  0.64101770    -0.09030
C1377       C  0.57861773  0.44669462  0.66190772     0.29830
C1378       C  0.55214279  0.41999300  0.67298616    -0.20990
C1379       C  0.52290494  0.39340048  0.66345390    -0.09040
C1380       C  0.52156132  0.39273283  0.64252852     0.29840
F1381       F  0.99432760  0.36669246  0.63277951    -0.19560
H1382       H  0.54628495  0.41852358  0.61537723     0.18200
H1383       H  0.55387991  0.42090344  0.68906517     0.18210
F1384       F  0.60614785  0.47243915  0.67162475    -0.19550
C1385       C  0.67890103  0.22859844  0.61033543    -0.20990
C1386       C  0.70934719  0.22737574  0.60987939    -0.09030
C1387       C  0.74111557  0.25863903  0.61031219     0.29830
C1388       C  0.74227454  0.29057056  0.61114083    -0.20990
C1389       C  0.71183665  0.29182734  0.61087466    -0.09040
C1390       C  0.68006661  0.26055102  0.61049145     0.29840
F1391       F  0.65018829  0.26090311  0.61035373    -0.19560
H1392       H  0.65416600  0.20477008  0.60989827     0.18200
H1393       H  0.76701699  0.31440465  0.61130878     0.18210
F1394       F  0.77098689  0.25827910  0.61003311    -0.19550
C1395       C  0.76352823  0.06866139  0.49971209    -0.20990
C1396       C  0.73108523  0.06357631  0.50452286    -0.09030
C1397       C  0.70835014  0.06001508  0.48924164     0.29830
C1398       C  0.71835145  0.06226722  0.46934934    -0.20990
C1399       C  0.75061797  0.06690889  0.46451690    -0.09040
C1400       C  0.77310338  0.06980356  0.47979560     0.29840
F1401       F  0.80440107  0.07418524  0.47542270    -0.19560
H1402       H  0.78134552  0.07165556  0.51139885     0.18200
H1403       H  0.70114331  0.06098917  0.45774145     0.18210
F1404       F  0.67719773  0.05602867  0.49359062    -0.19550
N1405       N  0.69452414  0.55243895  0.55409194    -0.26970
N1406       N  0.71857725  0.58575017  0.55449657    -0.34830
C1407       C  0.73608160  0.59413540  0.53726894     0.01370
C1408       C  0.72220237  0.56487766  0.52539759     0.07400
C1409       C  0.69570281  0.53894565  0.53637606    -0.05700
H1410       H  0.75607869  0.62011811  0.53321903     0.08060
H1411       H  0.67819590  0.01246244  0.53171444     0.09260
Cu1412     Cu  0.72293863  0.62026297  0.57653080     0.44170
Cu1413     Cu  0.66097290  0.52716086  0.57755012     0.41990
Cu1414     Cu  0.66192823  0.58448895  0.61615067     0.43880
N1415       N  0.71319291  0.65060376  0.59573050    -0.34360
N1416       N  0.68932082  0.63723428  0.60968980    -0.28610
C1417       C  0.68505201  0.66264676  0.61740931    -0.04710
C1418       C  0.70772511  0.69358490  0.60803837     0.07510
C1419       C  0.72518379  0.68497300  0.59439884     0.01300
H1420       H  0.66610999  0.65870269  0.62855268     0.08950
H1421       H  0.74342990  0.70192692  0.58334664     0.08030
N1422       N  0.63614069  0.53071614  0.61864418    -0.35800
N1423       N  0.63461898  0.50962472  0.60432234    -0.27980
C1424       C  0.61396590  0.97648548  0.61020529    -0.03220
C1425       C  0.60233362  0.97677616  0.62925701     0.05390
C1426       C  0.61692870  0.51162073  0.63409167     0.03480
H1427       H  0.60764364  0.95388263  0.60120706     0.08590
H1428       H  0.61264289  0.52237254  0.64747645     0.07420
N1429       N  0.72807597  0.96897952  0.55863329    -0.26970
N1430       N  0.70368478  0.93581555  0.55868363    -0.34830
C1431       C  0.68642447  0.92823414  0.54140303     0.01370
C1432       C  0.70090934  0.95787839  0.52980142     0.07400
C1433       C  0.72729360  0.98324862  0.54115678    -0.05700
H1434       H  0.66611831  0.90251666  0.53714279     0.08060
H1435       H  0.74487840  0.50998413  0.53697219     0.09260
Cu1436     Cu  0.69848794  0.90055498  0.58035771     0.44170
Cu1437     Cu  0.76169525  0.49307781  0.58211311     0.41990
Cu1438     Cu  0.75976906  0.93448749  0.62003863     0.43880
N1439       N  0.70803788  0.86937101  0.59887110    -0.34360
N1440       N  0.73198921  0.88199418  0.61280268    -0.28610
C1441       C  0.73622894  0.85614119  0.61980572    -0.04710
C1442       C  0.71346618  0.82571592  0.60998374     0.07510
C1443       C  0.69598482  0.83509374  0.59684276     0.01300
H1444       H  0.75527318  0.85947972  0.63072022     0.08950
H1445       H  0.67776076  0.81879524  0.58558855     0.08030
N1446       N  0.78632802  0.98827008  0.62294810    -0.35800
N1447       N  0.78824329  0.50974266  0.60877674    -0.27980
C1448       C  0.80945475  0.54271096  0.61473354    -0.03220
C1449       C  0.82103283  0.54194357  0.63369923     0.05390
C1450       C  0.80584059  0.50699735  0.63841426     0.03480
H1451       H  0.81620973  0.56550917  0.60583254     0.08590
H1452       H  0.80996673  0.99593112  0.65170189     0.07420
N1453       N  0.00797669  0.74219108  0.75471756    -0.26970
N1454       N  0.54104378  0.76598475  0.75421491    -0.34830
C1455       C  0.54993901  0.78349361  0.77151590     0.01370
C1456       C  0.52130280  0.76975563  0.78358982     0.07400
C1457       C  0.99513479  0.74349916  0.77257086    -0.05700
H1458       H  0.57586063  0.80320994  0.77550745     0.08060
H1459       H  0.96890640  0.72623169  0.77730117     0.09260
Cu1460     Cu  0.57456787  0.76943527  0.73210232     0.44170
Cu1461     Cu  0.98231155  0.70849726  0.73130762     0.41990
Cu1462     Cu  0.53853455  0.70594136  0.69344652     0.43880
N1463       N  0.60421154  0.75851503  0.71327476    -0.34360
N1464       N  0.59082924  0.73381941  0.69961174    -0.28610
C1465       C  0.61590326  0.72939961  0.69192602    -0.04710
C1466       C  0.64660453  0.75264561  0.70113939     0.07510
C1467       C  0.63817969  0.77079039  0.71450480     0.01300
H1468       H  0.61190405  0.71015698  0.68080358     0.08950
H1469       H  0.65509586  0.78992573  0.72523864     0.08030
N1470       N  0.98541573  0.68110745  0.69082238    -0.35800
N1471       N  0.96479613  0.68125941  0.70475103    -0.27980
C1472       C  0.93202479  0.66158894  0.69863737    -0.03220
C1473       C  0.93202047  0.64872462  0.67985044     0.05390
C1474       C  0.96635591  0.66162110  0.67543328     0.03480
H1475       H  0.90985747  0.65692210  0.70727821     0.08590
H1476       H  0.97677276  0.65622350  0.66232652     0.07420
N1477       N  0.92001746  0.77209579  0.74993678    -0.26970
N1478       N  0.88660370  0.74970430  0.75033662    -0.34830
C1479       C  0.87832218  0.73301954  0.76787773     0.01370
C1480       C  0.90782078  0.74563406  0.77922686     0.07400
C1481       C  0.93384397  0.77037004  0.76732983    -0.05700
H1482       H  0.85233829  0.71447873  0.77245564     0.08060
H1483       H  0.96075552  0.78640955  0.77108049     0.09260
Cu1484     Cu  0.85236574  0.74643725  0.72880569     0.44170
Cu1485     Cu  0.94472491  0.80534707  0.72623557     0.41990
Cu1486     Cu  0.88710787  0.80974315  0.68997214     0.43880
N1487       N  0.82211013  0.75705162  0.71040441    -0.34360
N1488       N  0.83499130  0.78191076  0.69683308    -0.28610
C1489       C  0.80961468  0.78644018  0.68976587    -0.04710
C1490       C  0.77928537  0.76295128  0.69921062     0.07510
C1491       C  0.78818406  0.74466091  0.71211332     0.01300
H1492       H  0.81315104  0.80598754  0.67898490     0.08950
H1493       H  0.77169077  0.72549854  0.72295352     0.08030
N1494       N  0.94019101  0.83455120  0.68664106    -0.35800
N1495       N  0.96125593  0.83387039  0.70006734    -0.27980
C1496       C  0.99385447  0.85408133  0.69379007    -0.03220
C1497       C  0.99327918  0.86775270  0.67538680     0.05390
C1498       C  0.95881463  0.85481511  0.67136064     0.03480
H1499       H  0.51630499  0.85858289  0.70206120     0.08590
H1500       H  0.94806605  0.86076548  0.65862783     0.07420
N1501       N  0.70395294  0.70883989  0.08486636    -0.26970
N1502       N  0.72707378  0.69894221  0.08467833    -0.34830
C1503       C  0.74342198  0.70675090  0.10225650     0.01370
C1504       C  0.72974261  0.72178718  0.11430502     0.07400
C1505       C  0.70459477  0.72256517  0.10286151    -0.05700
H1506       H  0.76252858  0.70006438  0.10637947     0.08060
H1507       H  0.68778347  0.73205869  0.10732316     0.09260
Cu1508     Cu  0.73197149  0.66924148  0.06264850     0.44170
Cu1509     Cu  0.67208098  0.70237007  0.06076694     0.41990
Cu1510     Cu  0.66894521  0.63999244  0.02492271     0.43880
N1511       N  0.72238722  0.62854207  0.04379208    -0.34360
N1512       N  0.69751674  0.61650719  0.03044360    -0.28610
C1513       C  0.69333425  0.58678955  0.02271091    -0.04710
C1514       C  0.71702574  0.58001286  0.03149289     0.07510
C1515       C  0.73511865  0.60706106  0.04474829     0.01300
H1516       H  0.67368928  0.57066882  0.01204655     0.08950
H1517       H  0.75424774  0.60949263  0.05534758     0.08030
N1518       N  0.64375485  0.66750347  0.02131853    -0.35800
N1519       N  0.64474435  0.69056696  0.03408686    -0.27980
C1520       C  0.62459477  0.70253407  0.02717201    -0.03220
C1521       C  0.61013767  0.68591939  0.00927465     0.05390
C1522       C  0.62298920  0.66399486  0.00612249     0.03480
H1523       H  0.61958237  0.72066615  0.03505145     0.08590
H1524       H  0.61711959  0.64612697  0.99385393     0.07420
N1525       N  0.73201468  0.82397594  0.08428790    -0.26970
N1526       N  0.70902360  0.83395293  0.08364124    -0.34830
C1527       C  0.69130282  0.82525147  0.10077808     0.01370
C1528       C  0.70383015  0.80919341  0.11291792     0.07400
C1529       C  0.72984893  0.80906848  0.10204527    -0.05700
H1530       H  0.67233919  0.83229593  0.10461276     0.08060
H1531       H  0.74651336  0.79960335  0.10684847     0.09260
Cu1532     Cu  0.70690207  0.86474276  0.06141637     0.44170
Cu1533     Cu  0.76589954  0.83253875  0.06118540     0.41990
Cu1534     Cu  0.76914813  0.89127695  0.02235460     0.43880
N1535       N  0.71841776  0.90576983  0.04254698    -0.34360
N1536       N  0.74243129  0.91675369  0.02868444    -0.28610
C1537       C  0.74725988  0.94688142  0.02112251    -0.04710
C1538       C  0.72503229  0.95507045  0.03068337     0.07510
C1539       C  0.70706418  0.92827809  0.04407445     0.01300
H1540       H  0.76612597  0.96204959  0.00988155     0.08950
H1541       H  0.68869244  0.92645204  0.05505887     0.08030
N1542       N  0.79369741  0.86258328  0.02056401    -0.35800
N1543       N  0.79345923  0.84216805  0.03491311    -0.27980
C1544       C  0.81357606  0.82933256  0.02953227    -0.03220
C1545       C  0.82680938  0.84193134  0.01079175     0.05390
C1546       C  0.81364468  0.86293529  0.00559448     0.03480
H1547       H  0.81847012  0.81236537  0.03869129     0.08590
H1548       H  0.81937556  0.87862483  0.99231881     0.07420
N1549       N  0.92160489  0.70516250  0.89282188    -0.26970
N1550       N  0.88769383  0.68869999  0.89186827    -0.34830
C1551       C  0.87812943  0.69169683  0.87339903     0.01370
C1552       C  0.90732899  0.71107399  0.86209166     0.07400
C1553       C  0.93441074  0.71934410  0.87492155    -0.05700
H1554       H  0.85173567  0.67990187  0.86847670     0.08060
H1555       H  0.96136532  0.73312309  0.87132179     0.09260
Cu1556     Cu  0.85503003  0.65873008  0.91438535     0.44170
Cu1557     Cu  0.94885133  0.70378727  0.91753241     0.41990
Cu1558     Cu  0.89392362  0.63439344  0.95187508     0.43880
N1559       N  0.82676486  0.61972002  0.93460251    -0.34360
N1560       N  0.84116892  0.60912864  0.94778431    -0.28610
C1561       C  0.81655532  0.57988218  0.95651630    -0.04710
C1562       C  0.78514865  0.57204074  0.94853818     0.07510
C1563       C  0.79260303  0.59792880  0.93475554     0.01300
H1564       H  0.82127789  0.56488232  0.96736495     0.08950
H1565       H  0.77482539  0.59932759  0.92454345     0.08030
N1566       N  0.94688740  0.66465542  0.95450011    -0.35800
N1567       N  0.96718003  0.69070125  0.94258443    -0.27980
C1568       C  0.50002911  0.70389418  0.94855095    -0.03220
C1569       C  0.50018277  0.68488227  0.96482229     0.05390
C1570       C  0.96612577  0.66033090  0.96811889     0.03480
H1571       H  0.52219236  0.72445762  0.94097800     0.08590
H1572       H  0.95608308  0.64015814  0.97933773     0.07420
N1573       N  0.01351883  0.81997318  0.89525743    -0.26970
N1574       N  0.54678208  0.83109086  0.89505067    -0.34830
C1575       C  0.55524293  0.82363633  0.87729568     0.01370
C1576       C  0.02584885  0.80676881  0.86589233     0.07400
C1577       C  0.99994340  0.80517553  0.87763386    -0.05700
H1578       H  0.58110452  0.83121397  0.87274399     0.08060
H1579       H  0.97347550  0.79538879  0.87355885     0.09260
Cu1580     Cu  0.58001313  0.86038210  0.91755730     0.44170
Cu1581     Cu  0.98827661  0.82757077  0.91876427     0.41990
Cu1582     Cu  0.54367150  0.88599389  0.95714776     0.43880
N1583       N  0.60925406  0.89951832  0.93756506    -0.34360
N1584       N  0.59608462  0.91032207  0.95145673    -0.28610
C1585       C  0.62152022  0.93978787  0.95958671    -0.04710
C1586       C  0.65214192  0.94763202  0.95043159     0.07510
C1587       C  0.64333987  0.92140516  0.93664993     0.01300
H1588       H  0.61779196  0.95492884  0.97083064     0.08950
H1589       H  0.66007355  0.91980901  0.92570804     0.08030
N1590       N  0.99034398  0.85893934  0.95874863    -0.35800
N1591       N  0.97002971  0.83841115  0.94447167    -0.27980
C1592       C  0.93711667  0.82672198  0.94956168    -0.03220
C1593       C  0.93668005  0.84016265  0.96808053     0.05390
C1594       C  0.97090289  0.86048993  0.97341171     0.03480
H1595       H  0.91516836  0.80986575  0.94039752     0.08590
H1596       H  0.98104414  0.87642517  0.98659847     0.07420
N1597       N  0.77175162  0.55846770  0.41333002    -0.26970
N1598       N  0.78529362  0.59255201  0.41460612    -0.34830
C1599       C  0.77932647  0.60060841  0.43289463     0.01370
C1600       C  0.76124378  0.57017181  0.44358979     0.07400
C1601       C  0.75715244  0.54400931  0.43083378    -0.05700
H1602       H  0.78846274  0.62677577  0.43821041     0.08060
H1603       H  0.74515875  0.01656731  0.43397144     0.09260
Cu1604     Cu  0.81553932  0.62709952  0.39272284     0.44170
Cu1605     Cu  0.77514184  0.53272791  0.38847774     0.41990
Cu1606     Cu  0.84160647  0.58914368  0.35439928     0.43880
N1607       N  0.85504210  0.65614432  0.37302032    -0.34360
N1608       N  0.86593944  0.64210672  0.35970039    -0.28610
C1609       C  0.89529007  0.66727641  0.35154959    -0.04710
C1610       C  0.90294843  0.69867251  0.36003300     0.07510
C1611       C  0.87684175  0.69067918  0.37351161     0.01300
H1612       H  0.91049734  0.66287267  0.34077765     0.08950
H1613       H  0.87525257  0.70825989  0.38397649     0.08030
N1614       N  0.81242768  0.53573227  0.35096261    -0.35800
N1615       N  0.78717260  0.51481130  0.36300152    -0.27980
C1616       C  0.77441502  0.98169659  0.35692084    -0.03220
C1617       C  0.79285511  0.98198905  0.34038020     0.05390
C1618       C  0.81676092  0.51661619  0.33710355     0.03480
H1619       H  0.75484723  0.95905583  0.36472846     0.08590
H1620       H  0.83672660  0.52706721  0.32590162     0.07420
N1621       N  0.65796449  0.97173080  0.41704055    -0.26970
N1622       N  0.64108167  0.93743516  0.41858934    -0.34830
C1623       C  0.64440505  0.92853284  0.43718847     0.01370
C1624       C  0.66457248  0.95857749  0.44786247     0.07400
C1625       C  0.67269364  0.48548175  0.43468684    -0.05700
H1626       H  0.63246934  0.90208732  0.44263324     0.08060
H1627       H  0.68691898  0.51295261  0.43784807     0.09260
Cu1628     Cu  0.61093468  0.90360268  0.39652050     0.44170
Cu1629     Cu  0.65722094  0.49825483  0.39170334     0.41990
Cu1630     Cu  0.58992738  0.94185601  0.35687390     0.43880
N1631       N  0.57317015  0.87455018  0.37602221    -0.34360
N1632       N  0.56401164  0.88875328  0.36187731    -0.28610
C1633       C  0.53555109  0.86371429  0.35286613    -0.04710
C1634       C  0.52663314  0.83221266  0.36174292     0.07510
C1635       C  0.55116150  0.84008049  0.37628980     0.01300
H1636       H  0.52189029  0.86827411  0.34114955     0.08950
H1637       H  0.55157050  0.82244080  0.38718213     0.08030
N1638       N  0.62025539  0.99525914  0.35379688    -0.35800
N1639       N  0.64552201  0.51604279  0.36590642    -0.27980
C1640       C  0.65878785  0.54916255  0.35965267    -0.03220
C1641       C  0.64068142  0.54898440  0.34296002     0.05390
C1642       C  0.61648648  0.51444773  0.33976700     0.03480
H1643       H  0.67858286  0.57176539  0.36738628     0.08590
H1644       H  0.59675923  0.50407845  0.32842617     0.07420
N1645       N  0.66077349  0.75772039  0.22652757    -0.26970
N1646       N  0.64671581  0.77743059  0.22528929    -0.34830
C1647       C  0.65157932  0.79087237  0.20686845     0.01370
C1648       C  0.66993118  0.77946661  0.19600593     0.07400
C1649       C  0.67495014  0.75820506  0.20885490    -0.05700
H1650       H  0.64160393  0.80695692  0.20160112     0.08060
H1651       H  0.68617788  0.74254003  0.20543245     0.09260
Cu1652     Cu  0.61762622  0.78188087  0.24743732     0.44170
Cu1653     Cu  0.65770313  0.72847244  0.25148814     0.41990
Cu1654     Cu  0.59911820  0.72582365  0.28916610     0.43880
N1655       N  0.58095247  0.77364733  0.26839401    -0.34360
N1656       N  0.57329752  0.75209443  0.28352995    -0.28610
C1657       C  0.54509850  0.74824408  0.29268362    -0.04710
C1658       C  0.53451479  0.76841785  0.28275992     0.07510
C1659       C  0.55804007  0.78432372  0.26752787     0.01300
H1660       H  0.53260954  0.73100991  0.30512702     0.08950
H1661       H  0.55706329  0.80034365  0.25576167     0.08030
N1662       N  0.62542811  0.69925947  0.29128561    -0.35800
N1663       N  0.64715587  0.70006449  0.27780458    -0.27980
C1664       C  0.65793113  0.67815672  0.28350896    -0.03220
C1665       C  0.64175574  0.66263339  0.30127340     0.05390
C1666       C  0.62155141  0.67682830  0.30573795     0.03480
H1667       H  0.67474931  0.67252599  0.27485395     0.08590
H1668       H  0.60445272  0.67062006  0.31831390     0.07420
N1669       N  0.77407650  0.76919006  0.22838862    -0.26970
N1670       N  0.79155468  0.75301042  0.22595647    -0.34830
C1671       C  0.78728242  0.74101460  0.20718429     0.01370
C1672       C  0.76581463  0.74972975  0.19734456     0.07400
C1673       C  0.75797539  0.76752835  0.21127834    -0.05700
H1674       H  0.79972440  0.72780960  0.20098520     0.08060
H1675       H  0.74360949  0.78041009  0.20902117     0.09260
Cu1676     Cu  0.82352054  0.75115577  0.24724378     0.44170
Cu1677     Cu  0.77622415  0.79730095  0.25364010     0.41990
Cu1678     Cu  0.84059458  0.80751368  0.28898465     0.43880
N1679       N  0.86048614  0.76072367  0.26835125    -0.34360
N1680       N  0.86782127  0.78275202  0.28324768    -0.28610
C1681       C  0.89640678  0.78770638  0.29242366    -0.04710
C1682       C  0.90707808  0.76728224  0.28301382     0.07510
C1683       C  0.88385440  0.75057990  0.26781340     0.01300
H1684       H  0.90932245  0.80600765  0.30439528     0.08950
H1685       H  0.88539645  0.73447334  0.25628835     0.08030
N1686       N  0.81211638  0.83168751  0.29172153    -0.35800
N1687       N  0.78828777  0.82818815  0.27897972    -0.27980
C1688       C  0.77674762  0.84953433  0.28451610    -0.03220
C1689       C  0.79454995  0.86750038  0.30142837     0.05390
C1690       C  0.81648431  0.85520345  0.30559935     0.03480
H1691       H  0.75821786  0.85311824  0.27624408     0.08590
H1692       H  0.83502448  0.86334701  0.31754753     0.07420
C1693       C  0.00159253  0.79913945  0.28024961    -0.20990
C1694       C  0.50236401  0.76902084  0.28540014    -0.09030
C1695       C  0.97168445  0.73903930  0.29128610     0.29830
C1696       C  0.94070858  0.73896181  0.29108227    -0.20990
C1697       C  0.94003633  0.76881079  0.28543444    -0.09040
C1698       C  0.97070563  0.79915510  0.28036532     0.29840
F1699       F  0.97045220  0.82811852  0.27442318    -0.19560
H1700       H  0.52486448  0.82250573  0.27568937     0.18200
H1701       H  0.91706363  0.71533121  0.29486949     0.18210
F1702       F  0.97108814  0.70914261  0.29594219    -0.19550
C1703       C  0.61131920  0.57875986  0.32952604    -0.20990
C1704       C  0.64204064  0.57889012  0.33271884    -0.09030
C1705       C  0.67302267  0.60680345  0.32550804     0.29830
C1706       C  0.67290829  0.63388096  0.31492363    -0.20990
C1707       C  0.64208311  0.63386159  0.31198295    -0.09040
C1708       C  0.61127155  0.60605027  0.31947304     0.29840
F1709       F  0.58082980  0.60457811  0.31652664    -0.19560
H1710       H  0.58718267  0.55743122  0.33495026     0.18200
H1711       H  0.69689575  0.65507854  0.30925604     0.18210
F1712       F  0.70306554  0.60730850  0.32815123    -0.19550
C1713       C  0.76255181  0.89634047  0.31359577    -0.20990
C1714       C  0.79361626  0.89648986  0.31154520    -0.09030
C1715       C  0.82401459  0.92483483  0.31912415     0.29830
C1716       C  0.82328077  0.95238843  0.32840969    -0.20990
C1717       C  0.79231234  0.95208503  0.33069024    -0.09040
C1718       C  0.76176845  0.92375344  0.32335918     0.29840
F1719       F  0.73151670  0.92313014  0.32510193    -0.19560
H1720       H  0.73886885  0.87482093  0.30783468     0.18200
H1721       H  0.84707257  0.97405813  0.33396396     0.18210
F1722       F  0.85476809  0.92666646  0.31698499    -0.19550
C1723       C  0.99693545  0.76767920  0.35995259    -0.20990
C1724       C  0.99521604  0.79817743  0.35875368    -0.09030
C1725       C  0.96304373  0.79559934  0.35648839     0.29830
C1726       C  0.93306679  0.76296407  0.35636415    -0.20990
C1727       C  0.93479199  0.73253773  0.35798170    -0.09040
C1728       C  0.96702067  0.73504789  0.35934978     0.29840
F1729       F  0.96948362  0.70611385  0.36143536    -0.19560
H1730       H  0.52149362  0.76917712  0.36177567     0.18200
H1731       H  0.90837638  0.76142101  0.35539896     0.18210
F1732       F  0.96034981  0.82453509  0.35573325    -0.19550
C1733       C  0.71598340  0.97719067  0.95080700    -0.20990
C1734       C  0.68617607  0.97946407  0.95237694    -0.09030
C1735       C  0.68936083  0.51242978  0.95402233     0.29830
C1736       C  0.72181285  0.54251402  0.95326949    -0.20990
C1737       C  0.75152485  0.54018556  0.95137582    -0.09040
C1738       C  0.74844827  0.50724039  0.95052214     0.29840
F1739       F  0.77661224  0.50411928  0.94811942    -0.19560
H1740       H  0.71406081  0.95205559  0.94941827     0.18200
H1741       H  0.72375055  0.56773410  0.95380835     0.18210
F1742       F  0.66112563  0.51571483  0.95506309    -0.19550
C1743       C  0.72033498  0.80549068  0.14779083    -0.20990
C1744       C  0.69461181  0.79922274  0.13393241    -0.09030
C1745       C  0.66063619  0.78568438  0.14058732     0.29830
C1746       C  0.65278696  0.77893520  0.16080498    -0.20990
C1747       C  0.67860611  0.78564227  0.17467696    -0.09040
C1748       C  0.71255215  0.79933204  0.16803057     0.29840
F1749       F  0.73858783  0.80895438  0.18112012    -0.19560
H1750       H  0.74680700  0.81664428  0.14307054     0.18200
H1751       H  0.62647615  0.76849723  0.16567054     0.18210
F1752       F  0.63497267  0.77870867  0.12755576    -0.19550
C1753       C  0.87936402  0.83597219  0.96857187    -0.20990
C1754       C  0.90665581  0.83669643  0.97901213    -0.09030
C1755       C  0.90581684  0.83599657  0.99993942     0.29830
C1756       C  0.87893091  0.83615052  0.01017455    -0.20990
C1757       C  0.85274031  0.83758528  0.99975192    -0.09040
C1758       C  0.85275078  0.83671745  0.97881759     0.29840
F1759       F  0.82711194  0.83666931  0.96825580    -0.19560
H1760       H  0.87931265  0.83621640  0.95246276     0.18200
H1761       H  0.87934680  0.83653351  0.02628148     0.18210
F1762       F  0.93102484  0.83524976  0.01052373    -0.19550
C1763       C  0.77317257  0.74702105  0.14137581    -0.20990
C1764       C  0.73872371  0.73162973  0.13538239    -0.09030
C1765       C  0.71323200  0.72327660  0.14986162     0.29830
C1766       C  0.72218972  0.72939353  0.17001805    -0.20990
C1767       C  0.75660080  0.74448157  0.17601064    -0.09040
C1768       C  0.78211590  0.75358636  0.16147495     0.29840
F1769       F  0.81572191  0.76894862  0.16670570    -0.19560
H1770       H  0.79321962  0.75377490  0.13044125     0.18200
H1771       H  0.70203507  0.72103972  0.18095220     0.18210
F1772       F  0.67956730  0.70740394  0.14469254    -0.19550
C1773       C  0.55555147  0.71751317  0.98373013    -0.20990
C1774       C  0.52989496  0.68650100  0.97502078    -0.09030
C1775       C  0.53158110  0.65608912  0.97706949     0.29830
C1776       C  0.55808244  0.65650680  0.98791728    -0.20990
C1777       C  0.58320440  0.68707679  0.99727205    -0.09040
C1778       C  0.58187714  0.71778741  0.99501756     0.29840
F1779       F  0.60611777  0.74801186  0.00347803    -0.19560
H1780       H  0.55459794  0.74120230  0.98227532     0.18200
H1781       H  0.55836887  0.63248059  0.98941115     0.18210
F1782       F  0.50758735  0.62587704  0.96846293    -0.19550
C1783       C  0.69127774  0.98513262  0.03178589    -0.20990
C1784       C  0.72303087  0.98707504  0.02901934    -0.09030
C1785       C  0.75267739  0.51986918  0.02616616     0.29830
C1786       C  0.75052985  0.55009555  0.02680014    -0.20990
C1787       C  0.71879536  0.54801768  0.02973503    -0.09040
C1788       C  0.68904570  0.51524890  0.03195484     0.29840
F1789       F  0.65810761  0.51246218  0.03533463    -0.19560
H1790       H  0.66813261  0.96019174  0.03405256     0.18200
H1791       H  0.77371097  0.57521869  0.02514095     0.18210
F1792       F  0.78394532  0.52294174  0.02383891    -0.19550
C1793       C  0.88595342  0.70303194  0.80715677    -0.20990
C1794       C  0.90968578  0.73646063  0.80016054    -0.09030
C1795       C  0.93346288  0.76111859  0.81358974     0.29830
C1796       C  0.93303512  0.75240824  0.83361260    -0.20990
C1797       C  0.90887184  0.71926274  0.84066752    -0.09040
C1798       C  0.88545752  0.69445293  0.82719200     0.29840
F1799       F  0.86233555  0.66175701  0.83330673    -0.19560
H1800       H  0.86758463  0.68345848  0.79709313     0.18200
H1801       H  0.95082026  0.77207755  0.84372371     0.18210
F1802       F  0.95576387  0.79419926  0.80772522    -0.19550
C1803       C  0.53306487  0.81343221  0.80997184    -0.20990
C1804       C  0.52061559  0.77866794  0.80457311    -0.09030
C1805       C  0.00980754  0.75310093  0.81943324     0.29830
C1806       C  0.01198144  0.76244389  0.83947243    -0.20990
C1807       C  0.02374543  0.79708248  0.84483281    -0.09040
C1808       C  0.53419838  0.82256514  0.82997819     0.29840
F1809       F  0.54564331  0.85623646  0.83486680    -0.19560
H1810       H  0.54167564  0.83341856  0.79865385     0.18200
H1811       H  0.00502473  0.74273011  0.85077329     0.18210
F1812       F  0.99867943  0.71946233  0.81461928    -0.19550
C1813       C  0.71064704  0.78791388  0.70004273    -0.20990
C1814       C  0.68045965  0.75522491  0.69906228    -0.09030
C1815       C  0.68310460  0.72522260  0.69725394     0.29830
C1816       C  0.71540056  0.72799816  0.69703692    -0.20990
C1817       C  0.74553114  0.76067394  0.69805774    -0.09040
C1818       C  0.74294101  0.79072981  0.69929605     0.29840
F1819       F  0.77155272  0.82265446  0.70084595    -0.19560
H1820       H  0.70919420  0.81132663  0.70152495     0.18200
H1821       H  0.71691943  0.70454802  0.69622240     0.18210
F1822       F  0.65455549  0.69311943  0.69675056    -0.19550
C1823       C  0.65717197  0.94308565  0.50331693    -0.20990
C1824       C  0.69181027  0.96041599  0.50907613    -0.09030
C1825       C  0.71742454  0.97826401  0.49468794     0.29830
C1826       C  0.70836192  0.97848763  0.47483592    -0.20990
C1827       C  0.67378406  0.96083541  0.46904082    -0.09040
C1828       C  0.64816482  0.94327110  0.48344878     0.29840
F1829       F  0.61446029  0.92628743  0.47828060    -0.19560
H1830       H  0.63708423  0.92919629  0.51421681     0.18200
H1831       H  0.72846847  0.49117417  0.46390660     0.18210
F1832       F  0.75118214  0.49358489  0.49955818    -0.19550
C1833       C  0.87630115  0.59837631  0.63583763    -0.20990
C1834       C  0.84740215  0.57149376  0.64541347    -0.09030
C1835       C  0.84510745  0.57203740  0.66626505     0.29830
C1836       C  0.87208594  0.59817582  0.67735323    -0.20990
C1837       C  0.90199796  0.62382839  0.66785809    -0.09040
C1838       C  0.90351592  0.62419306  0.64692298     0.29840
F1839       F  0.93133269  0.64937822  0.63713843    -0.19560
H1840       H  0.87846916  0.59860486  0.61978484     0.18200
H1841       H  0.87013116  0.59748835  0.69341935     0.18210
F1842       F  0.81686667  0.54720180  0.67592380    -0.19550
C1843       C  0.54832541  0.91908038  0.63144007    -0.20990
C1844       C  0.57653661  0.94683896  0.64101771    -0.09030
C1845       C  0.57861773  0.94669464  0.66190773     0.29830
C1846       C  0.55214280  0.91999301  0.67298616    -0.20990
C1847       C  0.52290494  0.89340049  0.66345390    -0.09040
C1848       C  0.52156133  0.89273284  0.64252853     0.29840
F1849       F  0.99432759  0.86669246  0.63277951    -0.19560
H1850       H  0.54628496  0.91852359  0.61537723     0.18200
H1851       H  0.55387991  0.92090345  0.68906518     0.18210
F1852       F  0.60614785  0.97243916  0.67162476    -0.19550
C1853       C  0.67890103  0.72859843  0.61033542    -0.20990
C1854       C  0.70934719  0.72737573  0.60987938    -0.09030
C1855       C  0.74111557  0.75863902  0.61031218     0.29830
C1856       C  0.74227454  0.79057055  0.61114082    -0.20990
C1857       C  0.71183665  0.79182733  0.61087466    -0.09040
C1858       C  0.68006661  0.76055101  0.61049145     0.29840
F1859       F  0.65018829  0.76090310  0.61035373    -0.19560
H1860       H  0.65416599  0.70477007  0.60989827     0.18200
H1861       H  0.76701699  0.81440464  0.61130877     0.18210
F1862       F  0.77098688  0.75827908  0.61003310    -0.19550
C1863       C  0.76352825  0.56866142  0.49971209    -0.20990
C1864       C  0.73108524  0.56357631  0.50452286    -0.09030
C1865       C  0.70835013  0.56001506  0.48924164     0.29830
C1866       C  0.71835145  0.56226720  0.46934934    -0.20990
C1867       C  0.75061798  0.56690890  0.46451690    -0.09040
C1868       C  0.77310340  0.56980359  0.47979560     0.29840
F1869       F  0.80440110  0.57418530  0.47542269    -0.19560
H1870       H  0.78134555  0.57165561  0.51139884     0.18200
H1871       H  0.70114330  0.56098913  0.45774144     0.18210
F1872       F  0.67719772  0.55602862  0.49359062    -0.19550
loop_ 
_geom_bond_atom_site_label_1 
_geom_bond_atom_site_label_2 
_geom_bond_distance 
_geom_bond_site_symmetry_2 
_ccdc_geom_bond_type 
N1            N2   1.323       .  A
N1            C5   1.346       .  A
N1           Cu9   2.078       .  S
N2            C3   1.343       .  A
N2           Cu8   2.071       .  S
C3            C4   1.379       .  A
C3            H6   1.082       .  S
C4            C5   1.382       .  A
C4          C460   1.468       .  S
C5          H475   1.082       .  S
H7          C473   1.082       .  S
Cu8          N11   2.071       .  S
Cu9          N19   2.078       .  S
Cu10         N12   2.074       .  S
Cu10         N18   2.075       .  S
N11          N12   1.321       .  A
N11          C15   1.345       .  A
N12          C13   1.346       .  A
C13          C14   1.384       .  A
C13          H16   1.082       .  S
C14          C15   1.384       .  A
C14         C450   1.476       .  S
C15          H17   1.082       .  S
N18          N19   1.322       .  A
N18          C22   1.344       .  A
N19         C488   1.347   1_545  A
C20         N487   1.347       .  A
C20          C21   1.386       .  A
C20          H23   1.082       .  S
C21         C490   1.384       .  A
C21         C440   1.479       .  S
C22         C489   1.384   1_545  A
C22          H24   1.081       .  S
N25          N26   1.323       .  A
N25          C29   1.345       .  A
N25        Cu501   2.072       .  S
N26          C27   1.343       .  A
N26         Cu32   2.068       .  S
C27          C28   1.381       .  A
C27          H30   1.082       .  S
C28          C29   1.384       .  A
C28         C420   1.472       .  S
C29         H499   1.082       .  S
H31         C497   1.082   1_545  S
Cu32         N35   2.068       .  S
Cu33         N43   2.073   1_565  S
Cu33        N493   2.072       .  S
Cu34         N36   2.076       .  S
Cu34         N42   2.077       .  S
N35          N36   1.321       .  A
N35          C39   1.344       .  A
N36          C37   1.346       .  A
C37          C38   1.385       .  A
C37          H40   1.082       .  S
C38          C39   1.383       .  A
C38         C453   1.477       .  S
C39          H41   1.082       .  S
N42         N511   1.322       .  A
N42         C514   1.344       .  A
N43         N510   1.322   1_545  A
N43          C44   1.346       .  A
C44          C45   1.384       .  A
C44          H47   1.082       .  S
C45          C46   1.384       .  A
C45         C430   1.477       .  S
C46         N510   1.344   1_545  A
C46         H516   1.081   1_545  S
H48         C514   1.081       .  S
N49         N986   1.323       .  A
N49          C53   1.346       .  A
N49         Cu57   2.075       .  S
N50         N985   1.323       .  A
N50          C51   1.343       .  A
N50         Cu56   2.070       .  S
C51          C52   1.379       .  A
C51          H54   1.083       .  S
C52         C989   1.383   1_455  A
C52         C400   1.469       .  S
C53         C988   1.383       .  A
C53          H55   1.083       .  S
Cu56         N59   2.071       .  S
Cu57         N67   2.076       .  S
Cu58         N60   2.078       .  S
Cu58       N1002   2.078   1_455  S
N59          N60   1.321       .  A
N59          C63   1.345       .  A
N60          C61   1.347       .  A
C61          C62   1.387       .  A
C61          H64   1.081       .  S
C62          C63   1.384       .  A
C62         C410   1.481       .  S
C63          H65   1.082       .  S
N66          N67   1.322       .  A
N66          C70   1.344       .  A
N66        Cu994   2.078       .  S
N67          C68   1.346       .  A
C68          C69   1.386       .  A
C68          H71   1.082       .  S
C69          C70   1.385       .  A
C69         C433   1.481       .  S
C70          H72   1.081       .  S
N73          N74   1.322       .  A
N73          C77   1.346       .  A
N73         Cu81   2.075       .  S
N74          C75   1.342       .  A
N74         Cu80   2.068       .  S
C75          C76   1.383       .  A
C75          H78   1.082       .  S
C76          C77   1.387       .  A
C76         C390   1.479       .  S
C77          H79   1.082       .  S
Cu80         N83   2.068       .  S
Cu81         N91   2.075       .  S
Cu82         N84   2.081       .  S
Cu82         N90   2.081       .  S
N83          N84   1.321       .  A
N83          C87   1.345       .  A
N84          C85   1.347       .  A
C85          C86   1.386       .  A
C85          H88   1.081       .  S
C86          C87   1.383       .  A
C86         C413   1.478       .  S
C87          H89   1.082       .  S
N90          N91   1.323       .  A
N90          C94   1.345       .  A
N91          C92   1.346       .  A
C92          C93   1.385       .  A
C92        H1031   1.082       .  S
C93          C94   1.385       .  A
C93        C1379   1.480       .  S
C94          H96   1.081       .  S
H95        C1028   1.082   1_455  S
N97          N98   1.324       .  A
N97         C101   1.348       .  A
N97        Cu105   2.087       .  S
N98          C99   1.342       .  A
N98        Cu104   2.071       .  S
C99         C100   1.380       .  A
C99         H102   1.082       .  S
C100        C101   1.387       .  A
C100        C360   1.477       .  S
C101        H103   1.082       .  S
Cu104       N107   2.070       .  S
Cu105       N115   2.087       .  S
Cu106       N108   2.066       .  S
Cu106       N114   2.067       .  S
N107        N108   1.320       .  A
N107        C111   1.346       .  A
N108        C109   1.344       .  A
C109        C110   1.383       .  A
C109        H112   1.082       .  S
C110        C111   1.384       .  A
C110        C383   1.474       .  S
C111        H113   1.082       .  S
N114        N115   1.322       .  A
N114        C118   1.341       .  A
N115        C116   1.350       .  A
C116        C117   1.389       .  A
C116        H119   1.082       .  S
C117        C118   1.383       .  A
C117        C373   1.482   1_554  S
C118        H120   1.081   1_554  S
N121        N122   1.321       .  A
N121        C125   1.345       .  A
N121       Cu129   2.074       .  S
N122        C123   1.342       .  A
N122       Cu128   2.064       .  S
C123        C124   1.382       .  A
C123        H126   1.082       .  S
C124        C125   1.386       .  A
C124        C340   1.475       .  S
C125        H127   1.082       .  S
Cu128       N131   2.065       .  S
Cu129       N139   2.075       .  S
Cu130       N132   2.077       .  S
Cu130       N138   2.078       .  S
N131        N132   1.321       .  A
N131        C135   1.343       .  A
N132        C133   1.347       .  A
C133        C134   1.387       .  A
C133        H136   1.082       .  S
C134        C135   1.383       .  A
C134        C380   1.479       .  S
C135        H137   1.082       .  S
N138        N139   1.323       .  A
N138        C142   1.345       .  A
N139        C140   1.345       .  A
C140        C141   1.385       .  A
C140        H143   1.082       .  S
C141        C142   1.385       .  A
C141        C353   1.479   1_554  S
C142        H144   1.081   1_554  S
N145        N146   1.322       .  A
N145        C149   1.345       .  A
N145       Cu153   2.086       .  S
N146        C147   1.343       .  A
N146       Cu152   2.062       .  S
C147        C148   1.381       .  A
C147        H150   1.082       .  S
C148        C149   1.385       .  A
C148        C393   1.478       .  S
C149        H151   1.077       .  S
Cu152       N155   2.062       .  S
Cu153       N163   2.086       .  S
Cu154       N156   2.074       .  S
Cu154       N162   2.074       .  S
N155        N156   1.320       .  A
N155        C159   1.343       .  A
N156        C157   1.346       .  A
C157        C158   1.385       .  A
C157        H160   1.081       .  S
C158        C159   1.382       .  A
C158        C333   1.474       .  S
C159        H161   1.082       .  S
N162        N163   1.323       .  A
N162        C166   1.342       .  A
N163       C1100   1.350       .  A
C164       N1099   1.350   1_455  A
C164        C165   1.386       .  A
C164        H167   1.082       .  S
C165       C1102   1.381   1_455  A
C165        C370   1.476       .  S
C166       C1101   1.381       .  A
C166        H168   1.082       .  S
N169       N1106   1.322       .  A
N169        C173   1.343       .  A
N169       Cu177   2.073       .  S
N170       N1105   1.322       .  A
N170        C171   1.344       .  A
N170       Cu176   2.063       .  S
C171       C1108   1.379       .  A
C171        H174   1.082       .  S
C172        C173   1.382       .  A
C172       C1107   1.379       .  A
C172        C403   1.468       .  S
C173        H175   1.080       .  S
Cu176       N179   2.064       .  S
Cu177       N187   2.073       .  S
Cu178       N180   2.079       .  S
Cu178      N1122   2.079   1_455  S
N179        N180   1.321       .  A
N179        C183   1.343       .  A
N180        C181   1.347       .  A
C181        C182   1.386       .  A
C181        H184   1.081       .  S
C182        C183   1.382       .  A
C182        C330   1.477       .  S
C183        H185   1.082       .  S
N186        N187   1.322       .  A
N186        C190   1.344       .  A
N186      Cu1114   2.079       .  S
N187        C188   1.346       .  A
C188        C189   1.385       .  A
C188        H191   1.082       .  S
C189        C190   1.385       .  A
C189        C350   1.479       .  S
C190        H192   1.081       .  S
N193        N194   1.323       .  A
N193        C197   1.343       .  A
N193       Cu201   2.075       .  S
N194        C195   1.345       .  A
N194       Cu200   2.066       .  S
C195        C196   1.379       .  A
C195        H198   1.082       .  S
C196        C197   1.382       .  A
C196        C463   1.469       .  S
C197        H667   1.079       .  S
H199        C665   1.079       .  S
Cu200       N203   2.066       .  S
Cu201       N211   2.074       .  S
Cu202       N204   2.069       .  S
Cu202       N210   2.069       .  S
N203        N204   1.321       .  A
N203        C207   1.343       .  A
N204        C205   1.345       .  A
C205        C206   1.383       .  A
C205        H208   1.082       .  S
C206        C207   1.382       .  A
C206        C323   1.472       .  S
C207        H209   1.082       .  S
N210        N211   1.322       .  A
N210        C214   1.342       .  A
N211        C680   1.348   1_545  A
C212        N679   1.348       .  A
C212        C213   1.384       .  A
C212        H215   1.082       .  S
C213        C682   1.382       .  A
C213        C313   1.473       .  S
C214        C681   1.382   1_545  A
C214        H216   1.082       .  S
N217        N218   1.323       .  A
N217        C689   1.345       .  A
N217       Cu693   2.083       .  S
N218        C219   1.343       .  A
N218       Cu224   2.060       .  S
C219        C220   1.379       .  A
C219        H222   1.082       .  S
C220        C689   1.383       .  A
C220        C423   1.472       .  S
C221        N685   1.345       .  A
C221        C688   1.383       .  A
C221        H223   1.077   1_565  S
Cu224       N227   2.060       .  S
Cu225       N235   2.083   1_565  S
Cu225       N685   2.083       .  S
Cu226       N228   2.069       .  S
Cu226       N234   2.070       .  S
N227        N228   1.320       .  A
N227        C231   1.342       .  A
N228        C229   1.345       .  A
C229        C230   1.385       .  A
C229        H232   1.081       .  S
C230        C231   1.383       .  A
C230       C1256   1.474   1_455  S
C231        H233   1.082       .  S
N234        N703   1.323       .  A
N234        C706   1.341       .  A
N235        N702   1.323   1_545  A
N235        C236   1.349       .  A
C236        C237   1.386       .  A
C236        H239   1.082       .  S
C237        C238   1.380       .  A
C237        C300   1.474       .  S
C238        N702   1.341   1_545  A
C238        H240   1.082       .  S
N241        N242   1.322       .  A
N241        C245   1.344       .  A
N241       Cu249   2.086       .  S
N242        C243   1.344       .  A
N242       Cu248   2.059       .  S
C243        C244   1.380       .  A
C243        H246   1.082       .  S
C244        C245   1.384       .  A
C244        C343   1.474       .  S
C245        H247   1.076       .  S
Cu248       N251   2.060       .  S
Cu249       N259   2.085       .  S
Cu250       N252   2.064       .  S
Cu250       N258   2.065       .  S
N251        N252   1.320       .  A
N251        C255   1.342       .  A
N252        C253   1.344       .  A
C253        C254   1.385       .  A
C253        H256   1.081       .  S
C254        C255   1.384       .  A
C254        C290   1.476       .  S
C255        H257   1.082       .  S
N258        N259   1.322       .  A
N258        C262   1.341       .  A
N259        C260   1.349       .  A
C260        C261   1.387       .  A
C260        H263   1.082       .  S
C261        C262   1.381       .  A
C261        C303   1.478       .  S
C262        H264   1.082       .  S
N265        N266   1.322       .  A
N265        C269   1.342       .  A
N265       Cu273   2.081       .  S
N266        C267   1.345       .  A
N266       Cu272   2.064       .  S
C267        C268   1.382       .  A
C267        H270   1.082       .  S
C268        C269   1.384       .  A
C268        C363   1.478       .  S
C269        H271   1.073       .  S
Cu272       N275   2.064       .  S
Cu273       N283   2.081       .  S
Cu274       N276   2.063       .  S
Cu274       N282   2.063       .  S
N275        N276   1.321       .  A
N275        C279   1.343       .  A
N276        C277   1.344       .  A
C277        C278   1.380       .  A
C277        H280   1.082       .  S
C278        C279   1.380       .  A
C278        C293   1.464       .  S
C279        H281   1.082       .  S
N282        N283   1.321       .  A
N282        C286   1.340       .  A
N283        C284   1.348       .  A
C284        C285   1.388       .  A
C284        H287   1.082       .  S
C285        C286   1.383       .  A
C285        C310   1.479       .  S
C286        H288   1.081       .  S
C289        C294   1.395       .  A
C289       C1226   1.405       .  A
C289       H1232   1.084       .  S
C290       C1225   1.405       .  A
C290       C1227   1.409   1_455  A
C291        C292   1.397       .  A
C291       C1226   1.409       .  A
C291        F298   1.357       .  S
C292        C293   1.399       .  A
C292        H297   1.084       .  S
C293        C294   1.402       .  A
C294        F295   1.358       .  S
H296       C1225   1.084       .  S
C299        C300   1.401       .  A
C299        C304   1.393       .  A
C299        H306   1.084       .  S
C300        C301   1.406       .  A
C301        C302   1.404       .  A
C301        F308   1.357       .  S
C302        C303   1.406       .  A
C302        H307   1.084       .  S
C303        C304   1.407       .  A
C304        F305   1.357       .  S
C309        C310   1.406       .  A
C309        C314   1.403       .  A
C309        H316   1.084       .  S
C310        C311   1.408       .  A
C311        C312   1.393       .  A
C311        F318   1.357       .  S
C312        C313   1.400       .  A
C312        H317   1.084       .  S
C313        C314   1.405       .  A
C314        F315   1.357       .  S
C319        C320   1.403       .  A
C319        C324   1.397       .  A
C319       H1262   1.084       .  S
C320        C321   1.407       .  A
C320       C1166   1.474       .  S
C321        C322   1.398       .  A
C321        F328   1.357       .  S
C322        C323   1.402       .  A
C322        H327   1.084       .  S
C323        C324   1.405       .  A
C324        F325   1.357       .  S
H326       C1255   1.084   1_455  S
C329        C330   1.404       .  A
C329        C802   1.398       .  A
C329        H336   1.083       .  S
C330        C799   1.407       .  A
C331        C332   1.399       .  A
C331        C798   1.407   1_545  A
C331        F338   1.357       .  S
C332        C333   1.403       .  A
C332        H337   1.083       .  S
C333        C334   1.405       .  A
C334        C797   1.398   1_545  A
C334        F335   1.357       .  S
C339        C340   1.402       .  A
C339        C344   1.396       .  A
C339        H346   1.084       .  S
C340        C341   1.407       .  A
C341        C342   1.398       .  A
C341        F348   1.357       .  S
C342        C343   1.402       .  A
C342        H347   1.084       .  S
C343        C344   1.405       .  A
C344        F345   1.352       .  S
C349        C350   1.404       .  A
C349        C354   1.400       .  A
C349        H356   1.082       .  S
C350        C351   1.406       .  A
C351        C352   1.398   1_556  A
C351        F358   1.357   1_556  S
C352        C353   1.404   1_554  A
C352        H357   1.082       .  S
C353        C354   1.407       .  A
C354        F355   1.357       .  S
C359        C360   1.404       .  A
C359        C364   1.397       .  A
C359        H366   1.083       .  S
C360        C361   1.405       .  A
C361        C362   1.400       .  A
C361        F368   1.357       .  S
C362        C363   1.404       .  A
C362        H367   1.078       .  S
C363        C364   1.404       .  A
C364        F365   1.357       .  S
C369        C370   1.404       .  A
C369        C374   1.405       .  A
C369        H376   1.083       .  S
C370        C371   1.403       .  A
C371        C372   1.394       .  A
C371        F378   1.358       .  S
C372        C373   1.404       .  A
C372        H377   1.083       .  S
C373        C374   1.409       .  A
C374        F375   1.357   1_556  S
C379        C380   1.404       .  A
C379        C852   1.397       .  A
C379        H386   1.084       .  S
C380        C849   1.408       .  A
C381        C382   1.400       .  A
C381        C848   1.408   1_545  A
C381        F388   1.357       .  S
C382        C383   1.402       .  A
C382        H387   1.084       .  S
C383        C384   1.404       .  A
C384        C847   1.397   1_545  A
C384        F385   1.358       .  S
C389        C390   1.405       .  A
C389        C394   1.397       .  A
C389        H396   1.083       .  S
C390        C391   1.407       .  A
C391        C392   1.398       .  A
C391        F398   1.356       .  S
C392        C393   1.402       .  A
C392        H397   1.078       .  S
C393        C394   1.405       .  A
C394        F395   1.357       .  S
C399        C400   1.402       .  A
C399        C404   1.398       .  A
C399        H406   1.083       .  S
C400       C1337   1.404       .  A
C401        C402   1.398       .  A
C401       C1336   1.404       .  A
C401        F408   1.357       .  S
C402        C403   1.402       .  A
C402        H407   1.081       .  S
C403       C1340   1.403       .  A
C404       C1339   1.403       .  A
C404        F405   1.357       .  S
C409        C410   1.405       .  A
C409        C414   1.400       .  A
C409        H416   1.083       .  S
C410        C411   1.407       .  A
C411        C412   1.400       .  A
C411        F418   1.357       .  S
C412        C413   1.403       .  A
C412        H417   1.083       .  S
C413        C414   1.406       .  A
C414        F415   1.357       .  S
C419        C420   1.403       .  A
C419        C424   1.397       .  A
C419        H426   1.083       .  S
C420        C421   1.405       .  A
C421        C422   1.397       .  A
C421        F896   1.357       .  S
C422        C423   1.401       .  A
C422        H895   1.078       .  S
C423        C424   1.404       .  A
C424        F425   1.357       .  S
H427        C890   1.078       .  S
F428        C889   1.357       .  S
C429        C430   1.403       .  A
C429        C434   1.398       .  A
C429        H436   1.082       .  S
C430        C431   1.406       .  A
C431        C432   1.399       .  A
C431        F438   1.357       .  S
C432        C433   1.405       .  A
C432        H437   1.082       .  S
C433        C434   1.408       .  A
C434        F435   1.357       .  S
C439        C440   1.404       .  A
C439        C444   1.399       .  A
C439        H446   1.082       .  S
C440        C441   1.407       .  A
C441        C442   1.399       .  A
C441        F448   1.357       .  S
C442        C443   1.404       .  A
C442        H447   1.082       .  S
C443        C444   1.407       .  A
C443       C1029   1.480   1_455  S
C444       F1381   1.357   1_455  S
F445       C1380   1.357       .  S
C449        C450   1.404       .  A
C449        C454   1.399       .  A
C449        H456   1.084       .  S
C450        C451   1.405       .  A
C451        C452   1.399       .  A
C451        F458   1.357       .  S
C452        C453   1.404       .  A
C452        H457   1.084       .  S
C453        C454   1.406       .  A
C454        F455   1.357       .  S
C459        C460   1.402       .  A
C459        C464   1.399       .  A
C459        H466   1.083       .  S
C460        C461   1.403       .  A
C461        C462   1.398       .  A
C461        F468   1.357       .  S
C462        C463   1.402       .  A
C462        H467   1.082       .  S
C463        C464   1.403       .  A
C464        F465   1.357       .  S
N469        N470   1.323       .  A
N469        C473   1.346       .  A
N469       Cu477   2.078       .  S
N470        C471   1.343       .  A
N470       Cu476   2.071       .  S
C471        C472   1.379       .  A
C471        H474   1.082       .  S
C472        C473   1.382       .  A
C472        C928   1.468       .  S
Cu476       N479   2.071       .  S
Cu477       N487   2.078       .  S
Cu478       N480   2.074       .  S
Cu478       N486   2.075       .  S
N479        N480   1.321       .  A
N479        C483   1.345       .  A
N480        C481   1.346       .  A
C481        C482   1.384       .  A
C481        H484   1.082       .  S
C482        C483   1.384       .  A
C482        C918   1.476       .  S
C483        H485   1.082       .  S
N486        N487   1.322       .  A
N486        C490   1.344       .  A
C488        C489   1.386       .  A
C488        H491   1.082       .  S
C489        C908   1.479       .  S
C490        H492   1.081       .  S
N493        N494   1.323       .  A
N493        C497   1.345       .  A
N494        C495   1.343       .  A
N494       Cu500   2.068       .  S
C495        C496   1.381       .  A
C495        H498   1.082       .  S
C496        C497   1.384       .  A
C496        C888   1.472       .  S
Cu500       N503   2.068       .  S
Cu501       N511   2.073       .  S
Cu502       N504   2.076       .  S
Cu502       N510   2.077       .  S
N503        N504   1.321       .  A
N503        C507   1.344       .  A
N504        C505   1.346       .  A
C505        C506   1.385       .  A
C505        H508   1.082       .  S
C506        C507   1.383       .  A
C506        C921   1.477       .  S
C507        H509   1.082       .  S
N511        C512   1.346       .  A
C512        C513   1.384       .  A
C512        H515   1.082       .  S
C513        C514   1.384       .  A
C513        C898   1.477       .  S
N517       N1454   1.323       .  A
N517        C521   1.346       .  A
N517       Cu525   2.075       .  S
N518       N1453   1.323       .  A
N518        C519   1.343       .  A
N518       Cu524   2.070       .  S
C519        C520   1.379       .  A
C519        H522   1.083       .  S
C520       C1457   1.383   1_455  A
C520        C868   1.469       .  S
C521       C1456   1.383       .  A
C521        H523   1.083       .  S
Cu524       N527   2.071       .  S
Cu525       N535   2.076       .  S
Cu526       N528   2.078       .  S
Cu526      N1470   2.078   1_455  S
N527        N528   1.321       .  A
N527        C531   1.345       .  A
N528        C529   1.347       .  A
C529        C530   1.387       .  A
C529        H532   1.081       .  S
C530        C531   1.384       .  A
C530        C878   1.481       .  S
C531        H533   1.082       .  S
N534        N535   1.322       .  A
N534        C538   1.344       .  A
N534      Cu1462   2.078       .  S
N535        C536   1.346       .  A
C536        C537   1.386       .  A
C536        H539   1.082       .  S
C537        C538   1.385       .  A
C537        C901   1.481       .  S
C538        H540   1.081       .  S
N541        N542   1.322       .  A
N541        C545   1.346       .  A
N541       Cu549   2.075       .  S
N542        C543   1.342       .  A
N542       Cu548   2.068       .  S
C543        C544   1.383       .  A
C543        H546   1.082       .  S
C544        C545   1.387       .  A
C544        C858   1.479       .  S
C545        H547   1.082       .  S
Cu548       N551   2.068       .  S
Cu549       N559   2.075       .  S
Cu550       N552   2.081       .  S
Cu550       N558   2.081       .  S
N551        N552   1.321       .  A
N551        C555   1.345       .  A
N552        C553   1.347       .  A
C553        C554   1.386       .  A
C553        H556   1.081       .  S
C554        C555   1.383       .  A
C554        C881   1.478       .  S
C555        H557   1.082       .  S
N558        N559   1.323       .  A
N558        C562   1.345       .  A
N559        C560   1.346       .  A
C560        C561   1.385       .  A
C560       H1499   1.082       .  S
C561        C562   1.385       .  A
C561       C1847   1.480       .  S
C562        H564   1.081       .  S
H563       C1496   1.082   1_455  S
N565        N566   1.324       .  A
N565        C569   1.348       .  A
N565       Cu573   2.087       .  S
N566        C567   1.342       .  A
N566       Cu572   2.071       .  S
C567        C568   1.380       .  A
C567        H570   1.082       .  S
C568        C569   1.387       .  A
C568        C828   1.477       .  S
C569        H571   1.082       .  S
Cu572       N575   2.070       .  S
Cu573       N583   2.087       .  S
Cu574       N576   2.066       .  S
Cu574       N582   2.067       .  S
N575        N576   1.320       .  A
N575        C579   1.346       .  A
N576        C577   1.344       .  A
C577        C578   1.383       .  A
C577        H580   1.082       .  S
C578        C579   1.384       .  A
C578        C851   1.474       .  S
C579        H581   1.082       .  S
N582        N583   1.322       .  A
N582        C586   1.341       .  A
N583        C584   1.350       .  A
C584        C585   1.389       .  A
C584        H587   1.082       .  S
C585        C586   1.383       .  A
C585        C841   1.482   1_554  S
C586        H588   1.081   1_554  S
N589        N590   1.321       .  A
N589        C593   1.345       .  A
N589       Cu597   2.074       .  S
N590        C591   1.342       .  A
N590       Cu596   2.064       .  S
C591        C592   1.382       .  A
C591        H594   1.082       .  S
C592        C593   1.386       .  A
C592        C808   1.475       .  S
C593        H595   1.082       .  S
Cu596       N599   2.065       .  S
Cu597       N607   2.075       .  S
Cu598       N600   2.077       .  S
Cu598       N606   2.078       .  S
N599        N600   1.321       .  A
N599        C603   1.343       .  A
N600        C601   1.347       .  A
C601        C602   1.387       .  A
C601        H604   1.082       .  S
C602        C603   1.383       .  A
C602        C848   1.479       .  S
C603        H605   1.082       .  S
N606        N607   1.323       .  A
N606        C610   1.345       .  A
N607        C608   1.345       .  A
C608        C609   1.385       .  A
C608        H611   1.082       .  S
C609        C610   1.385       .  A
C609        C821   1.479   1_554  S
C610        H612   1.081   1_554  S
N613        N614   1.322       .  A
N613        C617   1.345       .  A
N613       Cu621   2.086       .  S
N614        C615   1.343       .  A
N614       Cu620   2.062       .  S
C615        C616   1.381       .  A
C615        H618   1.082       .  S
C616        C617   1.385       .  A
C616        C861   1.478       .  S
C617        H619   1.077       .  S
Cu620       N623   2.062       .  S
Cu621       N631   2.086       .  S
Cu622       N624   2.074       .  S
Cu622       N630   2.074       .  S
N623        N624   1.320       .  A
N623        C627   1.343       .  A
N624        C625   1.346       .  A
C625        C626   1.385       .  A
C625        H628   1.081       .  S
C626        C627   1.382       .  A
C626        C801   1.474       .  S
C627        H629   1.082       .  S
N630        N631   1.323       .  A
N630        C634   1.342       .  A
N631       C1568   1.350       .  A
C632       N1567   1.350   1_455  A
C632        C633   1.386       .  A
C632        H635   1.082       .  S
C633       C1570   1.381   1_455  A
C633        C838   1.476       .  S
C634       C1569   1.381       .  A
C634        H636   1.082       .  S
N637       N1574   1.322       .  A
N637        C641   1.343       .  A
N637       Cu645   2.073       .  S
N638       N1573   1.322       .  A
N638        C639   1.344       .  A
N638       Cu644   2.063       .  S
C639       C1576   1.379       .  A
C639        H642   1.082       .  S
C640       C1575   1.379       .  A
C640        C641   1.382       .  A
C640        C871   1.468       .  S
C641        H643   1.080       .  S
Cu644       N647   2.064       .  S
Cu645       N655   2.073       .  S
Cu646       N648   2.079       .  S
Cu646      N1590   2.079   1_455  S
N647        N648   1.321       .  A
N647        C651   1.343       .  A
N648        C649   1.347       .  A
C649        C650   1.386       .  A
C649        H652   1.081       .  S
C650        C651   1.382       .  A
C650        C798   1.477       .  S
C651        H653   1.082       .  S
N654        N655   1.322       .  A
N654        C658   1.344       .  A
N654      Cu1582   2.079       .  S
N655        C656   1.346       .  A
C656        C657   1.385       .  A
C656        H659   1.082       .  S
C657        C658   1.385       .  A
C657        C818   1.479       .  S
C658        H660   1.081       .  S
N661        N662   1.323       .  A
N661        C665   1.343       .  A
N661       Cu669   2.075       .  S
N662        C663   1.345       .  A
N662       Cu668   2.066       .  S
C663        C664   1.379       .  A
C663        H666   1.082       .  S
C664        C665   1.382       .  A
C664        C931   1.469       .  S
Cu668       N671   2.066       .  S
Cu669       N679   2.074       .  S
Cu670       N672   2.069       .  S
Cu670       N678   2.069       .  S
N671        N672   1.321       .  A
N671        C675   1.343       .  A
N672        C673   1.345       .  A
C673        C674   1.383       .  A
C673        H676   1.082       .  S
C674        C675   1.382       .  A
C674        C791   1.472       .  S
C675        H677   1.082       .  S
N678        N679   1.322       .  A
N678        C682   1.342       .  A
C680        C681   1.384       .  A
C680        H683   1.082       .  S
C681        C781   1.473       .  S
C682        H684   1.082       .  S
N685        N686   1.323       .  A
N686        C687   1.343       .  A
N686       Cu692   2.060       .  S
C687        C688   1.379       .  A
C687        H690   1.082       .  S
C688        C891   1.472       .  S
C689        H691   1.077       .  S
Cu692       N695   2.060       .  S
Cu693       N703   2.083       .  S
Cu694       N696   2.069       .  S
Cu694       N702   2.070       .  S
N695        N696   1.320       .  A
N695        C699   1.342       .  A
N696        C697   1.345       .  A
C697        C698   1.385       .  A
C697        H700   1.081       .  S
C698        C699   1.383       .  A
C698       C1724   1.474   1_455  S
C699        H701   1.082       .  S
N703        C704   1.349       .  A
C704        C705   1.386       .  A
C704        H707   1.082       .  S
C705        C706   1.380       .  A
C705        C768   1.474       .  S
C706        H708   1.082       .  S
N709        N710   1.322       .  A
N709        C713   1.344       .  A
N709       Cu717   2.086       .  S
N710        C711   1.344       .  A
N710       Cu716   2.059       .  S
C711        C712   1.380       .  A
C711        H714   1.082       .  S
C712        C713   1.384       .  A
C712        C811   1.474       .  S
C713        H715   1.076       .  S
Cu716       N719   2.060       .  S
Cu717       N727   2.085       .  S
Cu718       N720   2.064       .  S
Cu718       N726   2.065       .  S
N719        N720   1.320       .  A
N719        C723   1.342       .  A
N720        C721   1.344       .  A
C721        C722   1.385       .  A
C721        H724   1.081       .  S
C722        C723   1.384       .  A
C722        C758   1.476       .  S
C723        H725   1.082       .  S
N726        N727   1.322       .  A
N726        C730   1.341       .  A
N727        C728   1.349       .  A
C728        C729   1.387       .  A
C728        H731   1.082       .  S
C729        C730   1.381       .  A
C729        C771   1.478       .  S
C730        H732   1.082       .  S
N733        N734   1.322       .  A
N733        C737   1.342       .  A
N733       Cu741   2.081       .  S
N734        C735   1.345       .  A
N734       Cu740   2.064       .  S
C735        C736   1.382       .  A
C735        H738   1.082       .  S
C736        C737   1.384       .  A
C736        C831   1.478       .  S
C737        H739   1.073       .  S
Cu740       N743   2.064       .  S
Cu741       N751   2.081       .  S
Cu742       N744   2.063       .  S
Cu742       N750   2.063       .  S
N743        N744   1.321       .  A
N743        C747   1.343       .  A
N744        C745   1.344       .  A
C745        C746   1.380       .  A
C745        H748   1.082       .  S
C746        C747   1.380       .  A
C746        C761   1.464       .  S
C747        H749   1.082       .  S
N750        N751   1.321       .  A
N750        C754   1.340       .  A
N751        C752   1.348       .  A
C752        C753   1.388       .  A
C752        H755   1.082       .  S
C753        C754   1.383       .  A
C753        C778   1.479       .  S
C754        H756   1.081       .  S
C757       C1694   1.405       .  A
C757        C762   1.395       .  A
C757       H1700   1.084       .  S
C758       C1693   1.405       .  A
C758       C1695   1.409   1_455  A
C759       C1694   1.409       .  A
C759        C760   1.397       .  A
C759        F766   1.357       .  S
C760        C761   1.399       .  A
C760        H765   1.084       .  S
C761        C762   1.402       .  A
C762        F763   1.358       .  S
H764       C1693   1.084       .  S
C767        C768   1.401       .  A
C767        C772   1.393       .  A
C767        H774   1.084       .  S
C768        C769   1.406       .  A
C769        C770   1.404       .  A
C769        F776   1.357       .  S
C770        C771   1.406       .  A
C770        H775   1.084       .  S
C771        C772   1.407       .  A
C772        F773   1.357       .  S
C777        C778   1.406       .  A
C777        C782   1.403       .  A
C777        H784   1.084       .  S
C778        C779   1.408       .  A
C779        C780   1.393       .  A
C779        F786   1.357       .  S
C780        C781   1.400       .  A
C780        H785   1.084       .  S
C781        C782   1.405       .  A
C782        F783   1.357       .  S
C787        C788   1.403       .  A
C787        C792   1.397       .  A
C787       H1730   1.084       .  S
C788        C789   1.407       .  A
C788       C1634   1.474       .  S
C789        C790   1.398       .  A
C789        F796   1.357       .  S
C790        C791   1.402       .  A
C790        H795   1.084       .  S
C791        C792   1.405       .  A
C792        F793   1.357       .  S
H794       C1723   1.084   1_455  S
C797        C798   1.404       .  A
C797        H804   1.083       .  S
C799        C800   1.399       .  A
C799        F806   1.357       .  S
C800        C801   1.403       .  A
C800        H805   1.083       .  S
C801        C802   1.405       .  A
C802        F803   1.357       .  S
C807        C808   1.402       .  A
C807        C812   1.396       .  A
C807        H814   1.084       .  S
C808        C809   1.407       .  A
C809        C810   1.398       .  A
C809        F816   1.357       .  S
C810        C811   1.402       .  A
C810        H815   1.084       .  S
C811        C812   1.405       .  A
C812        F813   1.352       .  S
C817        C818   1.404       .  A
C817        C822   1.400       .  A
C817        H824   1.082       .  S
C818        C819   1.406       .  A
C819        C820   1.398   1_556  A
C819        F826   1.357   1_556  S
C820        C821   1.404   1_554  A
C820        H825   1.082       .  S
C821        C822   1.407       .  A
C822        F823   1.357       .  S
C827        C828   1.404       .  A
C827        C832   1.397       .  A
C827        H834   1.083       .  S
C828        C829   1.405       .  A
C829        C830   1.400       .  A
C829        F836   1.357       .  S
C830        C831   1.404       .  A
C830        H835   1.078       .  S
C831        C832   1.404       .  A
C832        F833   1.357       .  S
C837        C838   1.404       .  A
C837        C842   1.405       .  A
C837        H844   1.083       .  S
C838        C839   1.403       .  A
C839        C840   1.394       .  A
C839        F846   1.358       .  S
C840        C841   1.404       .  A
C840        H845   1.083       .  S
C841        C842   1.409       .  A
C842        F843   1.357   1_556  S
C847        C848   1.404       .  A
C847        H854   1.084       .  S
C849        C850   1.400       .  A
C849        F856   1.357       .  S
C850        C851   1.402       .  A
C850        H855   1.084       .  S
C851        C852   1.404       .  A
C852        F853   1.358       .  S
C857        C858   1.405       .  A
C857        C862   1.397       .  A
C857        H864   1.083       .  S
C858        C859   1.407       .  A
C859        C860   1.398       .  A
C859        F866   1.356       .  S
C860        C861   1.402       .  A
C860        H865   1.078       .  S
C861        C862   1.405       .  A
C862        F863   1.357       .  S
C867        C868   1.402       .  A
C867        C872   1.398       .  A
C867        H874   1.083       .  S
C868       C1805   1.404       .  A
C869       C1804   1.404       .  A
C869        C870   1.398       .  A
C869        F876   1.357       .  S
C870        C871   1.402       .  A
C870        H875   1.081       .  S
C871       C1808   1.403       .  A
C872       C1807   1.403       .  A
C872        F873   1.357       .  S
C877        C878   1.405       .  A
C877        C882   1.400       .  A
C877        H884   1.083       .  S
C878        C879   1.407       .  A
C879        C880   1.400       .  A
C879        F886   1.357       .  S
C880        C881   1.403       .  A
C880        H885   1.083       .  S
C881        C882   1.406       .  A
C882        F883   1.357       .  S
C887        C888   1.403       .  A
C887        C892   1.397       .  A
C887        H894   1.083       .  S
C888        C889   1.405       .  A
C889        C890   1.397       .  A
C890        C891   1.401       .  A
C891        C892   1.404       .  A
C892        F893   1.357       .  S
C897        C898   1.403       .  A
C897        C902   1.398       .  A
C897        H904   1.082       .  S
C898        C899   1.406       .  A
C899        C900   1.399       .  A
C899        F906   1.357       .  S
C900        C901   1.405       .  A
C900        H905   1.082       .  S
C901        C902   1.408       .  A
C902        F903   1.357       .  S
C907        C908   1.404       .  A
C907        C912   1.399       .  A
C907        H914   1.082       .  S
C908        C909   1.407       .  A
C909        C910   1.399       .  A
C909        F916   1.357       .  S
C910        C911   1.404       .  A
C910        H915   1.082       .  S
C911        C912   1.407       .  A
C911       C1497   1.480   1_455  S
C912       F1849   1.357   1_455  S
F913       C1848   1.357       .  S
C917        C918   1.404       .  A
C917        C922   1.399       .  A
C917        H924   1.084       .  S
C918        C919   1.405       .  A
C919        C920   1.399       .  A
C919        F926   1.357       .  S
C920        C921   1.404       .  A
C920        H925   1.084       .  S
C921        C922   1.406       .  A
C922        F923   1.357       .  S
C927        C928   1.402       .  A
C927        C932   1.399       .  A
C927        H934   1.083       .  S
C928        C929   1.403       .  A
C929        C930   1.398       .  A
C929        F936   1.357       .  S
C930        C931   1.402       .  A
C930        H935   1.082       .  S
C931        C932   1.403       .  A
C932        F933   1.357       .  S
N937        N938   1.323       .  A
N937        C941   1.346       .  A
N937       Cu945   2.078       .  S
N938        C939   1.343       .  A
N938       Cu944   2.071       .  S
C939        C940   1.379       .  A
C939        H942   1.082       .  S
C940        C941   1.382       .  A
C940       C1396   1.468       .  S
C941       H1411   1.082       .  S
H943       C1409   1.082       .  S
Cu944       N947   2.071       .  S
Cu945       N955   2.078       .  S
Cu946       N948   2.074       .  S
Cu946       N954   2.075       .  S
N947        N948   1.321       .  A
N947        C951   1.345       .  A
N948        C949   1.346       .  A
C949        C950   1.384       .  A
C949        H952   1.082       .  S
C950        C951   1.384       .  A
C950       C1386   1.476       .  S
C951        H953   1.082       .  S
N954        N955   1.322       .  A
N954        C958   1.344       .  A
N955       C1424   1.347   1_545  A
C956       N1423   1.347       .  A
C956        C957   1.386       .  A
C956        H959   1.082       .  S
C957       C1426   1.384       .  A
C957       C1376   1.479       .  S
C958       C1425   1.384   1_545  A
C958        H960   1.081       .  S
N961        N962   1.323       .  A
N961        C965   1.345       .  A
N961      Cu1437   2.072       .  S
N962        C963   1.343       .  A
N962       Cu968   2.068       .  S
C963        C964   1.381       .  A
C963        H966   1.082       .  S
C964        C965   1.384       .  A
C964       C1356   1.472       .  S
C965       H1435   1.082       .  S
H967       C1433   1.082   1_545  S
Cu968       N971   2.068       .  S
Cu969      N1429   2.072       .  S
Cu969       N979   2.073   1_565  S
Cu970       N972   2.076       .  S
Cu970       N978   2.077       .  S
N971        N972   1.321       .  A
N971        C975   1.344       .  A
N972        C973   1.346       .  A
C973        C974   1.385       .  A
C973        H976   1.082       .  S
C974        C975   1.383       .  A
C974       C1389   1.477       .  S
C975        H977   1.082       .  S
N978       N1447   1.322       .  A
N978       C1450   1.344       .  A
N979       N1446   1.322   1_545  A
N979        C980   1.346       .  A
C980        C981   1.384       .  A
C980        H983   1.082       .  S
C981        C982   1.384       .  A
C981       C1366   1.477       .  S
C982       N1446   1.344   1_545  A
C982       H1452   1.081   1_545  S
H984       C1450   1.081       .  S
N985        C989   1.346   1_455  A
N985       Cu993   2.075   1_455  S
N986        C987   1.343       .  A
N986       Cu992   2.070       .  S
C987        C988   1.379       .  A
C987        H990   1.083       .  S
C988       C1336   1.469       .  S
C989        H991   1.083       .  S
Cu992       N995   2.071       .  S
Cu993      N1003   2.076       .  S
Cu994       N996   2.078       .  S
N995        N996   1.321       .  A
N995        C999   1.345       .  A
N996        C997   1.347       .  A
C997        C998   1.387       .  A
C997       H1000   1.081       .  S
C998        C999   1.384       .  A
C998       C1346   1.481       .  S
C999       H1001   1.082       .  S
N1002      N1003   1.322       .  A
N1002      C1006   1.344       .  A
N1003      C1004   1.346       .  A
C1004      C1005   1.386       .  A
C1004      H1007   1.082       .  S
C1005      C1006   1.385       .  A
C1005      C1369   1.481       .  S
C1006      H1008   1.081       .  S
N1009      N1010   1.322       .  A
N1009      C1013   1.346       .  A
N1009     Cu1017   2.075       .  S
N1010      C1011   1.342       .  A
N1010     Cu1016   2.068       .  S
C1011      C1012   1.383       .  A
C1011      H1014   1.082       .  S
C1012      C1013   1.387       .  A
C1012      C1326   1.479       .  S
C1013      H1015   1.082       .  S
Cu1016     N1019   2.068       .  S
Cu1017     N1027   2.075       .  S
Cu1018     N1020   2.081       .  S
Cu1018     N1026   2.081       .  S
N1019      N1020   1.321       .  A
N1019      C1023   1.345       .  A
N1020      C1021   1.347       .  A
C1021      C1022   1.386       .  A
C1021      H1024   1.081       .  S
C1022      C1023   1.383       .  A
C1022      C1349   1.478       .  S
C1023      H1025   1.082       .  S
N1026      N1027   1.323       .  A
N1026      C1030   1.345       .  A
N1027      C1028   1.346       .  A
C1028      C1029   1.385       .  A
C1029      C1030   1.385       .  A
C1030      H1032   1.081       .  S
N1033      N1034   1.324       .  A
N1033      C1037   1.348       .  A
N1033     Cu1041   2.087       .  S
N1034      C1035   1.342       .  A
N1034     Cu1040   2.071       .  S
C1035      C1036   1.380       .  A
C1035      H1038   1.082       .  S
C1036      C1037   1.387       .  A
C1036      C1296   1.477       .  S
C1037      H1039   1.082       .  S
Cu1040     N1043   2.070       .  S
Cu1041     N1051   2.087       .  S
Cu1042     N1044   2.066       .  S
Cu1042     N1050   2.067       .  S
N1043      N1044   1.320       .  A
N1043      C1047   1.346       .  A
N1044      C1045   1.344       .  A
C1045      C1046   1.383       .  A
C1045      H1048   1.082       .  S
C1046      C1047   1.384       .  A
C1046      C1319   1.474       .  S
C1047      H1049   1.082       .  S
N1050      N1051   1.322       .  A
N1050      C1054   1.341       .  A
N1051      C1052   1.350       .  A
C1052      C1053   1.389       .  A
C1052      H1055   1.082       .  S
C1053      C1054   1.383       .  A
C1053      C1309   1.482   1_554  S
C1054      H1056   1.081   1_554  S
N1057      N1058   1.321       .  A
N1057      C1061   1.345       .  A
N1057     Cu1065   2.074       .  S
N1058      C1059   1.342       .  A
N1058     Cu1064   2.064       .  S
C1059      C1060   1.382       .  A
C1059      H1062   1.082       .  S
C1060      C1061   1.386       .  A
C1060      C1276   1.475       .  S
C1061      H1063   1.082       .  S
Cu1064     N1067   2.065       .  S
Cu1065     N1075   2.075       .  S
Cu1066     N1068   2.077       .  S
Cu1066     N1074   2.078       .  S
N1067      N1068   1.321       .  A
N1067      C1071   1.343       .  A
N1068      C1069   1.347       .  A
C1069      C1070   1.387       .  A
C1069      H1072   1.082       .  S
C1070      C1071   1.383       .  A
C1070      C1316   1.479       .  S
C1071      H1073   1.082       .  S
N1074      N1075   1.323       .  A
N1074      C1078   1.345       .  A
N1075      C1076   1.345       .  A
C1076      C1077   1.385       .  A
C1076      H1079   1.082       .  S
C1077      C1078   1.385       .  A
C1077      C1289   1.479   1_554  S
C1078      H1080   1.081   1_554  S
N1081      N1082   1.322       .  A
N1081      C1085   1.345       .  A
N1081     Cu1089   2.086       .  S
N1082      C1083   1.343       .  A
N1082     Cu1088   2.062       .  S
C1083      C1084   1.381       .  A
C1083      H1086   1.082       .  S
C1084      C1085   1.385       .  A
C1084      C1329   1.478       .  S
C1085      H1087   1.077       .  S
Cu1088     N1091   2.062       .  S
Cu1089     N1099   2.086       .  S
Cu1090     N1092   2.074       .  S
Cu1090     N1098   2.074       .  S
N1091      N1092   1.320       .  A
N1091      C1095   1.343       .  A
N1092      C1093   1.346       .  A
C1093      C1094   1.385       .  A
C1093      H1096   1.081       .  S
C1094      C1095   1.382       .  A
C1094      C1269   1.474       .  S
C1095      H1097   1.082       .  S
N1098      N1099   1.323       .  A
N1098      C1102   1.342       .  A
C1100      C1101   1.386       .  A
C1100      H1103   1.082       .  S
C1101      C1306   1.476       .  S
C1102      H1104   1.082       .  S
N1105      C1109   1.343   1_455  A
N1105     Cu1113   2.073   1_455  S
N1106      C1107   1.344       .  A
N1106     Cu1112   2.063       .  S
C1107      H1110   1.082       .  S
C1108      C1109   1.382   1_455  A
C1108      C1339   1.468       .  S
C1109      H1111   1.080       .  S
Cu1112     N1115   2.064       .  S
Cu1113     N1123   2.073       .  S
Cu1114     N1116   2.079       .  S
N1115      N1116   1.321       .  A
N1115      C1119   1.343       .  A
N1116      C1117   1.347       .  A
C1117      C1118   1.386       .  A
C1117      H1120   1.081       .  S
C1118      C1119   1.382       .  A
C1118      C1266   1.477       .  S
C1119      H1121   1.082       .  S
N1122      N1123   1.322       .  A
N1122      C1126   1.344       .  A
N1123      C1124   1.346       .  A
C1124      C1125   1.385       .  A
C1124      H1127   1.082       .  S
C1125      C1126   1.385       .  A
C1125      C1286   1.479       .  S
C1126      H1128   1.081       .  S
N1129      N1130   1.323       .  A
N1129      C1133   1.343       .  A
N1129     Cu1137   2.075       .  S
N1130      C1131   1.345       .  A
N1130     Cu1136   2.066       .  S
C1131      C1132   1.379       .  A
C1131      H1134   1.082       .  S
C1132      C1133   1.382       .  A
C1132      C1399   1.469       .  S
C1133      H1603   1.079       .  S
H1135      C1601   1.079       .  S
Cu1136     N1139   2.066       .  S
Cu1137     N1147   2.074       .  S
Cu1138     N1140   2.069       .  S
Cu1138     N1146   2.069       .  S
N1139      N1140   1.321       .  A
N1139      C1143   1.343       .  A
N1140      C1141   1.345       .  A
C1141      C1142   1.383       .  A
C1141      H1144   1.082       .  S
C1142      C1143   1.382       .  A
C1142      C1259   1.472       .  S
C1143      H1145   1.082       .  S
N1146      N1147   1.322       .  A
N1146      C1150   1.342       .  A
N1147      C1616   1.348   1_545  A
C1148      N1615   1.348       .  A
C1148      C1149   1.384       .  A
C1148      H1151   1.082       .  S
C1149      C1618   1.382       .  A
C1149      C1249   1.473       .  S
C1150      C1617   1.382   1_545  A
C1150      H1152   1.082       .  S
N1153      N1154   1.323       .  A
N1153      C1625   1.345       .  A
N1153     Cu1629   2.083       .  S
N1154      C1155   1.343       .  A
N1154     Cu1160   2.060       .  S
C1155      C1156   1.379       .  A
C1155      H1158   1.082       .  S
C1156      C1625   1.383       .  A
C1156      C1359   1.472       .  S
C1157      N1621   1.345       .  A
C1157      C1624   1.383       .  A
C1157      H1159   1.077   1_565  S
Cu1160     N1163   2.060       .  S
Cu1161     N1621   2.083       .  S
Cu1161     N1171   2.083   1_565  S
Cu1162     N1164   2.069       .  S
Cu1162     N1170   2.070       .  S
N1163      N1164   1.320       .  A
N1163      C1167   1.342       .  A
N1164      C1165   1.345       .  A
C1165      C1166   1.385       .  A
C1165      H1168   1.081       .  S
C1166      C1167   1.383       .  A
C1167      H1169   1.082       .  S
N1170      N1639   1.323       .  A
N1170      C1642   1.341       .  A
N1171      N1638   1.323   1_545  A
N1171      C1172   1.349       .  A
C1172      C1173   1.386       .  A
C1172      H1175   1.082       .  S
C1173      C1174   1.380       .  A
C1173      C1236   1.474       .  S
C1174      N1638   1.341   1_545  A
C1174      H1176   1.082       .  S
N1177      N1178   1.322       .  A
N1177      C1181   1.344       .  A
N1177     Cu1185   2.086       .  S
N1178      C1179   1.344       .  A
N1178     Cu1184   2.059       .  S
C1179      C1180   1.380       .  A
C1179      H1182   1.082       .  S
C1180      C1181   1.384       .  A
C1180      C1279   1.474       .  S
C1181      H1183   1.076       .  S
Cu1184     N1187   2.060       .  S
Cu1185     N1195   2.085       .  S
Cu1186     N1188   2.064       .  S
Cu1186     N1194   2.065       .  S
N1187      N1188   1.320       .  A
N1187      C1191   1.342       .  A
N1188      C1189   1.344       .  A
C1189      C1190   1.385       .  A
C1189      H1192   1.081       .  S
C1190      C1191   1.384       .  A
C1190      C1226   1.476       .  S
C1191      H1193   1.082       .  S
N1194      N1195   1.322       .  A
N1194      C1198   1.341       .  A
N1195      C1196   1.349       .  A
C1196      C1197   1.387       .  A
C1196      H1199   1.082       .  S
C1197      C1198   1.381       .  A
C1197      C1239   1.478       .  S
C1198      H1200   1.082       .  S
N1201      N1202   1.322       .  A
N1201      C1205   1.342       .  A
N1201     Cu1209   2.081       .  S
N1202      C1203   1.345       .  A
N1202     Cu1208   2.064       .  S
C1203      C1204   1.382       .  A
C1203      H1206   1.082       .  S
C1204      C1205   1.384       .  A
C1204      C1299   1.478       .  S
C1205      H1207   1.073       .  S
Cu1208     N1211   2.064       .  S
Cu1209     N1219   2.081       .  S
Cu1210     N1212   2.063       .  S
Cu1210     N1218   2.063       .  S
N1211      N1212   1.321       .  A
N1211      C1215   1.343       .  A
N1212      C1213   1.344       .  A
C1213      C1214   1.380       .  A
C1213      H1216   1.082       .  S
C1214      C1215   1.380       .  A
C1214      C1229   1.464       .  S
C1215      H1217   1.082       .  S
N1218      N1219   1.321       .  A
N1218      C1222   1.340       .  A
N1219      C1220   1.348       .  A
C1220      C1221   1.388       .  A
C1220      H1223   1.082       .  S
C1221      C1222   1.383       .  A
C1221      C1246   1.479       .  S
C1222      H1224   1.081       .  S
C1225      C1230   1.395   1_455  A
C1227      C1228   1.397       .  A
C1227      F1234   1.357       .  S
C1228      C1229   1.399       .  A
C1228      H1233   1.084       .  S
C1229      C1230   1.402       .  A
C1230      F1231   1.358       .  S
C1235      C1236   1.401       .  A
C1235      C1240   1.393       .  A
C1235      H1242   1.084       .  S
C1236      C1237   1.406       .  A
C1237      C1238   1.404       .  A
C1237      F1244   1.357       .  S
C1238      C1239   1.406       .  A
C1238      H1243   1.084       .  S
C1239      C1240   1.407       .  A
C1240      F1241   1.357       .  S
C1245      C1246   1.406       .  A
C1245      C1250   1.403       .  A
C1245      H1252   1.084       .  S
C1246      C1247   1.408       .  A
C1247      C1248   1.393       .  A
C1247      F1254   1.357       .  S
C1248      C1249   1.400       .  A
C1248      H1253   1.084       .  S
C1249      C1250   1.405       .  A
C1250      F1251   1.357       .  S
C1255      C1256   1.403       .  A
C1255      C1260   1.397       .  A
C1256      C1257   1.407       .  A
C1257      C1258   1.398       .  A
C1257      F1264   1.357       .  S
C1258      C1259   1.402       .  A
C1258      H1263   1.084       .  S
C1259      C1260   1.405       .  A
C1260      F1261   1.357       .  S
C1265      C1266   1.404       .  A
C1265      C1738   1.398       .  A
C1265      H1272   1.083       .  S
C1266      C1735   1.407       .  A
C1267      C1734   1.407   1_545  A
C1267      C1268   1.399       .  A
C1267      F1274   1.357       .  S
C1268      C1269   1.403       .  A
C1268      H1273   1.083       .  S
C1269      C1270   1.405       .  A
C1270      C1733   1.398   1_545  A
C1270      F1271   1.357       .  S
C1275      C1276   1.402       .  A
C1275      C1280   1.396       .  A
C1275      H1282   1.084       .  S
C1276      C1277   1.407       .  A
C1277      C1278   1.398       .  A
C1277      F1284   1.357       .  S
C1278      C1279   1.402       .  A
C1278      H1283   1.084       .  S
C1279      C1280   1.405       .  A
C1280      F1281   1.352       .  S
C1285      C1286   1.404       .  A
C1285      C1290   1.400       .  A
C1285      H1292   1.082       .  S
C1286      C1287   1.406       .  A
C1287      C1288   1.398   1_556  A
C1287      F1294   1.357   1_556  S
C1288      C1289   1.404   1_554  A
C1288      H1293   1.082       .  S
C1289      C1290   1.407       .  A
C1290      F1291   1.357       .  S
C1295      C1296   1.404       .  A
C1295      C1300   1.397       .  A
C1295      H1302   1.083       .  S
C1296      C1297   1.405       .  A
C1297      C1298   1.400       .  A
C1297      F1304   1.357       .  S
C1298      C1299   1.404       .  A
C1298      H1303   1.078       .  S
C1299      C1300   1.404       .  A
C1300      F1301   1.357       .  S
C1305      C1306   1.404       .  A
C1305      C1310   1.405       .  A
C1305      H1312   1.083       .  S
C1306      C1307   1.403       .  A
C1307      C1308   1.394       .  A
C1307      F1314   1.358       .  S
C1308      C1309   1.404       .  A
C1308      H1313   1.083       .  S
C1309      C1310   1.409       .  A
C1310      F1311   1.357   1_556  S
C1315      C1316   1.404       .  A
C1315      C1788   1.397       .  A
C1315      H1322   1.084       .  S
C1316      C1785   1.408       .  A
C1317      C1784   1.408   1_545  A
C1317      C1318   1.400       .  A
C1317      F1324   1.357       .  S
C1318      C1319   1.402       .  A
C1318      H1323   1.084       .  S
C1319      C1320   1.404       .  A
C1320      C1783   1.397   1_545  A
C1320      F1321   1.358       .  S
C1325      C1326   1.405       .  A
C1325      C1330   1.397       .  A
C1325      H1332   1.083       .  S
C1326      C1327   1.407       .  A
C1327      C1328   1.398       .  A
C1327      F1334   1.356       .  S
C1328      C1329   1.402       .  A
C1328      H1333   1.078       .  S
C1329      C1330   1.405       .  A
C1330      F1331   1.357       .  S
C1335      C1336   1.402       .  A
C1335      C1340   1.398       .  A
C1335      H1342   1.083       .  S
C1337      C1338   1.398       .  A
C1337      F1344   1.357   1_455  S
C1338      C1339   1.402       .  A
C1338      H1343   1.081       .  S
C1340      F1341   1.357       .  S
C1345      C1346   1.405       .  A
C1345      C1350   1.400       .  A
C1345      H1352   1.083       .  S
C1346      C1347   1.407       .  A
C1347      C1348   1.400       .  A
C1347      F1354   1.357       .  S
C1348      C1349   1.403       .  A
C1348      H1353   1.083       .  S
C1349      C1350   1.406       .  A
C1350      F1351   1.357       .  S
C1355      C1356   1.403       .  A
C1355      C1360   1.397       .  A
C1355      H1362   1.083       .  S
C1356      C1357   1.405       .  A
C1357      C1358   1.397       .  A
C1357      F1832   1.357       .  S
C1358      C1359   1.401       .  A
C1358      H1831   1.078       .  S
C1359      C1360   1.404       .  A
C1360      F1361   1.357       .  S
H1363      C1826   1.078       .  S
F1364      C1825   1.357       .  S
C1365      C1366   1.403       .  A
C1365      C1370   1.398       .  A
C1365      H1372   1.082       .  S
C1366      C1367   1.406       .  A
C1367      C1368   1.399       .  A
C1367      F1374   1.357       .  S
C1368      C1369   1.405       .  A
C1368      H1373   1.082       .  S
C1369      C1370   1.408       .  A
C1370      F1371   1.357       .  S
C1375      C1376   1.404       .  A
C1375      C1380   1.399       .  A
C1375      H1382   1.082       .  S
C1376      C1377   1.407       .  A
C1377      C1378   1.399       .  A
C1377      F1384   1.357       .  S
C1378      C1379   1.404       .  A
C1378      H1383   1.082       .  S
C1379      C1380   1.407       .  A
C1385      C1386   1.404       .  A
C1385      C1390   1.399       .  A
C1385      H1392   1.084       .  S
C1386      C1387   1.405       .  A
C1387      C1388   1.399       .  A
C1387      F1394   1.357       .  S
C1388      C1389   1.404       .  A
C1388      H1393   1.084       .  S
C1389      C1390   1.406       .  A
C1390      F1391   1.357       .  S
C1395      C1396   1.402       .  A
C1395      C1400   1.399       .  A
C1395      H1402   1.083       .  S
C1396      C1397   1.403       .  A
C1397      C1398   1.398       .  A
C1397      F1404   1.357       .  S
C1398      C1399   1.402       .  A
C1398      H1403   1.082       .  S
C1399      C1400   1.403       .  A
C1400      F1401   1.357       .  S
N1405      N1406   1.323       .  A
N1405      C1409   1.346       .  A
N1405     Cu1413   2.078       .  S
N1406      C1407   1.343       .  A
N1406     Cu1412   2.071       .  S
C1407      C1408   1.379       .  A
C1407      H1410   1.082       .  S
C1408      C1409   1.382       .  A
C1408      C1864   1.468       .  S
Cu1412     N1415   2.071       .  S
Cu1413     N1423   2.078       .  S
Cu1414     N1416   2.074       .  S
Cu1414     N1422   2.075       .  S
N1415      N1416   1.321       .  A
N1415      C1419   1.345       .  A
N1416      C1417   1.346       .  A
C1417      C1418   1.384       .  A
C1417      H1420   1.082       .  S
C1418      C1419   1.384       .  A
C1418      C1854   1.476       .  S
C1419      H1421   1.082       .  S
N1422      N1423   1.322       .  A
N1422      C1426   1.344       .  A
C1424      C1425   1.386       .  A
C1424      H1427   1.082       .  S
C1425      C1844   1.479       .  S
C1426      H1428   1.081       .  S
N1429      N1430   1.323       .  A
N1429      C1433   1.345       .  A
N1430      C1431   1.343       .  A
N1430     Cu1436   2.068       .  S
C1431      C1432   1.381       .  A
C1431      H1434   1.082       .  S
C1432      C1433   1.384       .  A
C1432      C1824   1.472       .  S
Cu1436     N1439   2.068       .  S
Cu1437     N1447   2.073       .  S
Cu1438     N1440   2.076       .  S
Cu1438     N1446   2.077       .  S
N1439      N1440   1.321       .  A
N1439      C1443   1.344       .  A
N1440      C1441   1.346       .  A
C1441      C1442   1.385       .  A
C1441      H1444   1.082       .  S
C1442      C1443   1.383       .  A
C1442      C1857   1.477       .  S
C1443      H1445   1.082       .  S
N1447      C1448   1.346       .  A
C1448      C1449   1.384       .  A
C1448      H1451   1.082       .  S
C1449      C1450   1.384       .  A
C1449      C1834   1.477       .  S
N1453      C1457   1.346   1_455  A
N1453     Cu1461   2.075   1_455  S
N1454      C1455   1.343       .  A
N1454     Cu1460   2.070       .  S
C1455      C1456   1.379       .  A
C1455      H1458   1.083       .  S
C1456      C1804   1.469       .  S
C1457      H1459   1.083       .  S
Cu1460     N1463   2.071       .  S
Cu1461     N1471   2.076       .  S
Cu1462     N1464   2.078       .  S
N1463      N1464   1.321       .  A
N1463      C1467   1.345       .  A
N1464      C1465   1.347       .  A
C1465      C1466   1.387       .  A
C1465      H1468   1.081       .  S
C1466      C1467   1.384       .  A
C1466      C1814   1.481       .  S
C1467      H1469   1.082       .  S
N1470      N1471   1.322       .  A
N1470      C1474   1.344       .  A
N1471      C1472   1.346       .  A
C1472      C1473   1.386       .  A
C1472      H1475   1.082       .  S
C1473      C1474   1.385       .  A
C1473      C1837   1.481       .  S
C1474      H1476   1.081       .  S
N1477      N1478   1.322       .  A
N1477      C1481   1.346       .  A
N1477     Cu1485   2.075       .  S
N1478      C1479   1.342       .  A
N1478     Cu1484   2.068       .  S
C1479      C1480   1.383       .  A
C1479      H1482   1.082       .  S
C1480      C1481   1.387       .  A
C1480      C1794   1.479       .  S
C1481      H1483   1.082       .  S
Cu1484     N1487   2.068       .  S
Cu1485     N1495   2.075       .  S
Cu1486     N1488   2.081       .  S
Cu1486     N1494   2.081       .  S
N1487      N1488   1.321       .  A
N1487      C1491   1.345       .  A
N1488      C1489   1.347       .  A
C1489      C1490   1.386       .  A
C1489      H1492   1.081       .  S
C1490      C1491   1.383       .  A
C1490      C1817   1.478       .  S
C1491      H1493   1.082       .  S
N1494      N1495   1.323       .  A
N1494      C1498   1.345       .  A
N1495      C1496   1.346       .  A
C1496      C1497   1.385       .  A
C1497      C1498   1.385       .  A
C1498      H1500   1.081       .  S
N1501      N1502   1.324       .  A
N1501      C1505   1.348       .  A
N1501     Cu1509   2.087       .  S
N1502      C1503   1.342       .  A
N1502     Cu1508   2.071       .  S
C1503      C1504   1.380       .  A
C1503      H1506   1.082       .  S
C1504      C1505   1.387       .  A
C1504      C1764   1.477       .  S
C1505      H1507   1.082       .  S
Cu1508     N1511   2.070       .  S
Cu1509     N1519   2.087       .  S
Cu1510     N1512   2.066       .  S
Cu1510     N1518   2.067       .  S
N1511      N1512   1.320       .  A
N1511      C1515   1.346       .  A
N1512      C1513   1.344       .  A
C1513      C1514   1.383       .  A
C1513      H1516   1.082       .  S
C1514      C1515   1.384       .  A
C1514      C1787   1.474       .  S
C1515      H1517   1.082       .  S
N1518      N1519   1.322       .  A
N1518      C1522   1.341       .  A
N1519      C1520   1.350       .  A
C1520      C1521   1.389       .  A
C1520      H1523   1.082       .  S
C1521      C1522   1.383       .  A
C1521      C1777   1.482   1_554  S
C1522      H1524   1.081   1_554  S
N1525      N1526   1.321       .  A
N1525      C1529   1.345       .  A
N1525     Cu1533   2.074       .  S
N1526      C1527   1.342       .  A
N1526     Cu1532   2.064       .  S
C1527      C1528   1.382       .  A
C1527      H1530   1.082       .  S
C1528      C1529   1.386       .  A
C1528      C1744   1.475       .  S
C1529      H1531   1.082       .  S
Cu1532     N1535   2.065       .  S
Cu1533     N1543   2.075       .  S
Cu1534     N1536   2.077       .  S
Cu1534     N1542   2.078       .  S
N1535      N1536   1.321       .  A
N1535      C1539   1.343       .  A
N1536      C1537   1.347       .  A
C1537      C1538   1.387       .  A
C1537      H1540   1.082       .  S
C1538      C1539   1.383       .  A
C1538      C1784   1.479       .  S
C1539      H1541   1.082       .  S
N1542      N1543   1.323       .  A
N1542      C1546   1.345       .  A
N1543      C1544   1.345       .  A
C1544      C1545   1.385       .  A
C1544      H1547   1.082       .  S
C1545      C1546   1.385       .  A
C1545      C1757   1.479   1_554  S
C1546      H1548   1.081   1_554  S
N1549      N1550   1.322       .  A
N1549      C1553   1.345       .  A
N1549     Cu1557   2.086       .  S
N1550      C1551   1.343       .  A
N1550     Cu1556   2.062       .  S
C1551      C1552   1.381       .  A
C1551      H1554   1.082       .  S
C1552      C1553   1.385       .  A
C1552      C1797   1.478       .  S
C1553      H1555   1.077       .  S
Cu1556     N1559   2.062       .  S
Cu1557     N1567   2.086       .  S
Cu1558     N1560   2.074       .  S
Cu1558     N1566   2.074       .  S
N1559      N1560   1.320       .  A
N1559      C1563   1.343       .  A
N1560      C1561   1.346       .  A
C1561      C1562   1.385       .  A
C1561      H1564   1.081       .  S
C1562      C1563   1.382       .  A
C1562      C1737   1.474       .  S
C1563      H1565   1.082       .  S
N1566      N1567   1.323       .  A
N1566      C1570   1.342       .  A
C1568      C1569   1.386       .  A
C1568      H1571   1.082       .  S
C1569      C1774   1.476       .  S
C1570      H1572   1.082       .  S
N1573      C1577   1.343   1_455  A
N1573     Cu1581   2.073   1_455  S
N1574      C1575   1.344       .  A
N1574     Cu1580   2.063       .  S
C1575      H1578   1.082       .  S
C1576      C1577   1.382   1_455  A
C1576      C1807   1.468       .  S
C1577      H1579   1.080       .  S
Cu1580     N1583   2.064       .  S
Cu1581     N1591   2.073       .  S
Cu1582     N1584   2.079       .  S
N1583      N1584   1.321       .  A
N1583      C1587   1.343       .  A
N1584      C1585   1.347       .  A
C1585      C1586   1.386       .  A
C1585      H1588   1.081       .  S
C1586      C1587   1.382       .  A
C1586      C1734   1.477       .  S
C1587      H1589   1.082       .  S
N1590      N1591   1.322       .  A
N1590      C1594   1.344       .  A
N1591      C1592   1.346       .  A
C1592      C1593   1.385       .  A
C1592      H1595   1.082       .  S
C1593      C1594   1.385       .  A
C1593      C1754   1.479       .  S
C1594      H1596   1.081       .  S
N1597      N1598   1.323       .  A
N1597      C1601   1.343       .  A
N1597     Cu1605   2.075       .  S
N1598      C1599   1.345       .  A
N1598     Cu1604   2.066       .  S
C1599      C1600   1.379       .  A
C1599      H1602   1.082       .  S
C1600      C1601   1.382       .  A
C1600      C1867   1.469       .  S
Cu1604     N1607   2.066       .  S
Cu1605     N1615   2.074       .  S
Cu1606     N1608   2.069       .  S
Cu1606     N1614   2.069       .  S
N1607      N1608   1.321       .  A
N1607      C1611   1.343       .  A
N1608      C1609   1.345       .  A
C1609      C1610   1.383       .  A
C1609      H1612   1.082       .  S
C1610      C1611   1.382       .  A
C1610      C1727   1.472       .  S
C1611      H1613   1.082       .  S
N1614      N1615   1.322       .  A
N1614      C1618   1.342       .  A
C1616      C1617   1.384       .  A
C1616      H1619   1.082       .  S
C1617      C1717   1.473       .  S
C1618      H1620   1.082       .  S
N1621      N1622   1.323       .  A
N1622      C1623   1.343       .  A
N1622     Cu1628   2.060       .  S
C1623      C1624   1.379       .  A
C1623      H1626   1.082       .  S
C1624      C1827   1.472       .  S
C1625      H1627   1.077       .  S
Cu1628     N1631   2.060       .  S
Cu1629     N1639   2.083       .  S
Cu1630     N1632   2.069       .  S
Cu1630     N1638   2.070       .  S
N1631      N1632   1.320       .  A
N1631      C1635   1.342       .  A
N1632      C1633   1.345       .  A
C1633      C1634   1.385       .  A
C1633      H1636   1.081       .  S
C1634      C1635   1.383       .  A
C1635      H1637   1.082       .  S
N1639      C1640   1.349       .  A
C1640      C1641   1.386       .  A
C1640      H1643   1.082       .  S
C1641      C1642   1.380       .  A
C1641      C1704   1.474       .  S
C1642      H1644   1.082       .  S
N1645      N1646   1.322       .  A
N1645      C1649   1.344       .  A
N1645     Cu1653   2.086       .  S
N1646      C1647   1.344       .  A
N1646     Cu1652   2.059       .  S
C1647      C1648   1.380       .  A
C1647      H1650   1.082       .  S
C1648      C1649   1.384       .  A
C1648      C1747   1.474       .  S
C1649      H1651   1.076       .  S
Cu1652     N1655   2.060       .  S
Cu1653     N1663   2.085       .  S
Cu1654     N1656   2.064       .  S
Cu1654     N1662   2.065       .  S
N1655      N1656   1.320       .  A
N1655      C1659   1.342       .  A
N1656      C1657   1.344       .  A
C1657      C1658   1.385       .  A
C1657      H1660   1.081       .  S
C1658      C1659   1.384       .  A
C1658      C1694   1.476       .  S
C1659      H1661   1.082       .  S
N1662      N1663   1.322       .  A
N1662      C1666   1.341       .  A
N1663      C1664   1.349       .  A
C1664      C1665   1.387       .  A
C1664      H1667   1.082       .  S
C1665      C1666   1.381       .  A
C1665      C1707   1.478       .  S
C1666      H1668   1.082       .  S
N1669      N1670   1.322       .  A
N1669      C1673   1.342       .  A
N1669     Cu1677   2.081       .  S
N1670      C1671   1.345       .  A
N1670     Cu1676   2.064       .  S
C1671      C1672   1.382       .  A
C1671      H1674   1.082       .  S
C1672      C1673   1.384       .  A
C1672      C1767   1.478       .  S
C1673      H1675   1.073       .  S
Cu1676     N1679   2.064       .  S
Cu1677     N1687   2.081       .  S
Cu1678     N1680   2.063       .  S
Cu1678     N1686   2.063       .  S
N1679      N1680   1.321       .  A
N1679      C1683   1.343       .  A
N1680      C1681   1.344       .  A
C1681      C1682   1.380       .  A
C1681      H1684   1.082       .  S
C1682      C1683   1.380       .  A
C1682      C1697   1.464       .  S
C1683      H1685   1.082       .  S
N1686      N1687   1.321       .  A
N1686      C1690   1.340       .  A
N1687      C1688   1.348       .  A
C1688      C1689   1.388       .  A
C1688      H1691   1.082       .  S
C1689      C1690   1.383       .  A
C1689      C1714   1.479       .  S
C1690      H1692   1.081       .  S
C1693      C1698   1.395   1_455  A
C1695      C1696   1.397       .  A
C1695      F1702   1.357       .  S
C1696      C1697   1.399       .  A
C1696      H1701   1.084       .  S
C1697      C1698   1.402       .  A
C1698      F1699   1.358       .  S
C1703      C1704   1.401       .  A
C1703      C1708   1.393       .  A
C1703      H1710   1.084       .  S
C1704      C1705   1.406       .  A
C1705      C1706   1.404       .  A
C1705      F1712   1.357       .  S
C1706      C1707   1.406       .  A
C1706      H1711   1.084       .  S
C1707      C1708   1.407       .  A
C1708      F1709   1.357       .  S
C1713      C1714   1.406       .  A
C1713      C1718   1.403       .  A
C1713      H1720   1.084       .  S
C1714      C1715   1.408       .  A
C1715      C1716   1.393       .  A
C1715      F1722   1.357       .  S
C1716      C1717   1.400       .  A
C1716      H1721   1.084       .  S
C1717      C1718   1.405       .  A
C1718      F1719   1.357       .  S
C1723      C1724   1.403       .  A
C1723      C1728   1.397       .  A
C1724      C1725   1.407       .  A
C1725      C1726   1.398       .  A
C1725      F1732   1.357       .  S
C1726      C1727   1.402       .  A
C1726      H1731   1.084       .  S
C1727      C1728   1.405       .  A
C1728      F1729   1.357       .  S
C1733      C1734   1.404       .  A
C1733      H1740   1.083       .  S
C1735      C1736   1.399       .  A
C1735      F1742   1.357       .  S
C1736      C1737   1.403       .  A
C1736      H1741   1.083       .  S
C1737      C1738   1.405       .  A
C1738      F1739   1.357       .  S
C1743      C1744   1.402       .  A
C1743      C1748   1.396       .  A
C1743      H1750   1.084       .  S
C1744      C1745   1.407       .  A
C1745      C1746   1.398       .  A
C1745      F1752   1.357       .  S
C1746      C1747   1.402       .  A
C1746      H1751   1.084       .  S
C1747      C1748   1.405       .  A
C1748      F1749   1.352       .  S
C1753      C1754   1.404       .  A
C1753      C1758   1.400       .  A
C1753      H1760   1.082       .  S
C1754      C1755   1.406       .  A
C1755      C1756   1.398   1_556  A
C1755      F1762   1.357   1_556  S
C1756      C1757   1.404   1_554  A
C1756      H1761   1.082       .  S
C1757      C1758   1.407       .  A
C1758      F1759   1.357       .  S
C1763      C1764   1.404       .  A
C1763      C1768   1.397       .  A
C1763      H1770   1.083       .  S
C1764      C1765   1.405       .  A
C1765      C1766   1.400       .  A
C1765      F1772   1.357       .  S
C1766      C1767   1.404       .  A
C1766      H1771   1.078       .  S
C1767      C1768   1.404       .  A
C1768      F1769   1.357       .  S
C1773      C1774   1.404       .  A
C1773      C1778   1.405       .  A
C1773      H1780   1.083       .  S
C1774      C1775   1.403       .  A
C1775      C1776   1.394       .  A
C1775      F1782   1.358       .  S
C1776      C1777   1.404       .  A
C1776      H1781   1.083       .  S
C1777      C1778   1.409       .  A
C1778      F1779   1.357   1_556  S
C1783      C1784   1.404       .  A
C1783      H1790   1.084       .  S
C1785      C1786   1.400       .  A
C1785      F1792   1.357       .  S
C1786      C1787   1.402       .  A
C1786      H1791   1.084       .  S
C1787      C1788   1.404       .  A
C1788      F1789   1.358       .  S
C1793      C1794   1.405       .  A
C1793      C1798   1.397       .  A
C1793      H1800   1.083       .  S
C1794      C1795   1.407       .  A
C1795      C1796   1.398       .  A
C1795      F1802   1.356       .  S
C1796      C1797   1.402       .  A
C1796      H1801   1.078       .  S
C1797      C1798   1.405       .  A
C1798      F1799   1.357       .  S
C1803      C1804   1.402       .  A
C1803      C1808   1.398       .  A
C1803      H1810   1.083       .  S
C1805      C1806   1.398       .  A
C1805      F1812   1.357   1_455  S
C1806      C1807   1.402       .  A
C1806      H1811   1.081       .  S
C1808      F1809   1.357       .  S
C1813      C1814   1.405       .  A
C1813      C1818   1.400       .  A
C1813      H1820   1.083       .  S
C1814      C1815   1.407       .  A
C1815      C1816   1.400       .  A
C1815      F1822   1.357       .  S
C1816      C1817   1.403       .  A
C1816      H1821   1.083       .  S
C1817      C1818   1.406       .  A
C1818      F1819   1.357       .  S
C1823      C1824   1.403       .  A
C1823      C1828   1.397       .  A
C1823      H1830   1.083       .  S
C1824      C1825   1.405       .  A
C1825      C1826   1.397       .  A
C1826      C1827   1.401       .  A
C1827      C1828   1.404       .  A
C1828      F1829   1.357       .  S
C1833      C1834   1.403       .  A
C1833      C1838   1.398       .  A
C1833      H1840   1.082       .  S
C1834      C1835   1.406       .  A
C1835      C1836   1.399       .  A
C1835      F1842   1.357       .  S
C1836      C1837   1.405       .  A
C1836      H1841   1.082       .  S
C1837      C1838   1.408       .  A
C1838      F1839   1.357       .  S
C1843      C1844   1.404       .  A
C1843      C1848   1.399       .  A
C1843      H1850   1.082       .  S
C1844      C1845   1.407       .  A
C1845      C1846   1.399       .  A
C1845      F1852   1.357       .  S
C1846      C1847   1.404       .  A
C1846      H1851   1.082       .  S
C1847      C1848   1.407       .  A
C1853      C1854   1.404       .  A
C1853      C1858   1.399       .  A
C1853      H1860   1.084       .  S
C1854      C1855   1.405       .  A
C1855      C1856   1.399       .  A
C1855      F1862   1.357       .  S
C1856      C1857   1.404       .  A
C1856      H1861   1.084       .  S
C1857      C1858   1.406       .  A
C1858      F1859   1.357       .  S
C1863      C1864   1.402       .  A
C1863      C1868   1.399       .  A
C1863      H1870   1.083       .  S
C1864      C1865   1.403       .  A
C1865      C1866   1.398       .  A
C1865      F1872   1.357       .  S
C1866      C1867   1.402       .  A
C1866      H1871   1.082       .  S
C1867      C1868   1.403       .  A
C1868      F1869   1.357       .  S
