geometry optimzed in LAMMPS
_audit_creation_date              2020-11-30 
_audit_creation_method            'lammps2cif' 
_symmetry_space_group_name_H-M    'P1' 
_symmetry_Int_Tables_number       1 
_symmetry_cell_setting            triclinic 
loop_ 
_symmetry_equiv_pos_as_xyz 
  x,y,z 
_cell_length_a                    24.677880309760415 
_cell_length_b                    49.18048590399237 
_cell_length_c                    30.366183654734805 
_cell_angle_alpha                 89.60909434630435 
_cell_angle_beta                  90.16850541965566 
_cell_angle_gamma                 120.19215629432102 
loop_ 
_atom_site_label 
_atom_site_type_symbol 
_atom_site_fract_x 
_atom_site_fract_y 
_atom_site_fract_z 
_atom_site_charge 
C1          C  0.71642718  0.34280205  0.25223429     0.01020
C2          C  0.68772294  0.35992984  0.25143335     0.01010
C3          C  0.87358885  0.34227776  0.24815810     0.01020
C4          C  0.93666384  0.35686487  0.24793549     0.01010
C5          C  0.87366708  0.04912065  0.25210274     0.01020
C6          C  0.93660628  0.06371872  0.25136927     0.01010
C7          C  0.74470456  0.03682289  0.32087082     0.03580
C8          C  0.70849862  0.00533851  0.30704375    -0.12570
C9          C  0.73863637  0.98951395  0.29170672     0.01080
C10         C  0.80360717  0.00406815  0.29844559    -0.11100
C11         C  0.83729908  0.03694769  0.29406848     0.03570
C12         C  0.80955784  0.05328360  0.31182808    -0.10520
H13         H  0.65782015  0.99400329  0.30601490     0.09170
H14         H  0.82674517  0.99135246  0.28840166     0.06700
H15         H  0.83691755  0.07858103  0.31555137     0.06540
C16         C  0.74447073  0.03554663  0.17824776     0.03580
C17         C  0.80680557  0.05298680  0.19343674    -0.12570
C18         C  0.83581185  0.03703308  0.21086862     0.01080
C19         C  0.80489940  0.00436246  0.20483754    -0.11100
C20         C  0.73939692  0.98861793  0.20893626     0.03570
C21         C  0.70875624  0.00355572  0.19059656    -0.10520
H22         H  0.83059984  0.07843903  0.19435584     0.09170
H23         H  0.82869724  0.99207973  0.21576434     0.06700
H24         H  0.65805846  0.99111577  0.18848216     0.06540
C25         C  0.71437711  0.47036859  0.25081780     0.01020
C26         C  0.68666663  0.43883600  0.25185269     0.01010
C27         C  0.06750591  0.11325172  0.32412846     0.03580
C28         C  0.00447202  0.09984341  0.31060179    -0.12570
C29         C  0.97404078  0.06949103  0.29269368     0.01080
C30         C  0.00380889  0.05174456  0.29799478    -0.11100
C31         C  0.06908419  0.06831355  0.29238695     0.03570
C32         C  0.10158371  0.09879377  0.31003894    -0.10520
H33         H  0.98064931  0.11325700  0.31183334     0.09170
H34         H  0.97838929  0.02734012  0.28806348     0.06700
H35         H  0.15237392  0.11171959  0.31055744     0.06540
C36         C  0.06436977  0.11111693  0.17436700     0.03580
C37         C  0.00186937  0.09826989  0.18914497    -0.12570
C38         C  0.97201788  0.06843580  0.20931236     0.01080
C39         C  0.00135984  0.05049459  0.20497565    -0.11100
C40         C  0.06679301  0.06720388  0.20915128     0.03570
C41         C  0.09873210  0.09701685  0.18934512    -0.10520
H42         H  0.97827386  0.11178389  0.18731958     0.09170
H43         H  0.97636758  0.02639187  0.21666160     0.06700
H44         H  0.14951249  0.10989953  0.18814329     0.06540
C45         C  0.09264978  0.06166591  0.25067446     0.01020
C46         C  0.12476996  0.04622447  0.25033401     0.01010
C47         C  0.22788429  0.03222395  0.32141904     0.03580
C48         C  0.19895444  0.04950289  0.30832944    -0.12570
C49         C  0.13783818  0.03366077  0.29152244     0.01080
C50         C  0.10398917  0.00082351  0.29681538    -0.11100
C51         C  0.13829269  0.98533709  0.29161447     0.03570
C52         C  0.19898549  0.00018409  0.30948975    -0.10520
H53         H  0.22534441  0.07499481  0.30833465     0.09170
H54         H  0.05536528  0.98850057  0.28658461     0.06700
H55         H  0.22430037  0.98753546  0.31149776     0.06540
C56         C  0.74426852  0.29191091  0.32342714     0.03580
C57         C  0.71068983  0.30719198  0.31223727    -0.12570
C58         C  0.74237461  0.33738815  0.29372889     0.01080
C59         C  0.80800527  0.35377348  0.29669702    -0.11100
C60         C  0.83700978  0.33583055  0.29018938     0.03570
C61         C  0.80687027  0.30527350  0.30841836    -0.10520
H62         H  0.65995948  0.29461601  0.31435537     0.09170
H63         H  0.83276811  0.37800180  0.28544891     0.06700
H64         H  0.83036533  0.29169318  0.30861160     0.06540
Fe65       Fe  0.66140613  0.14154742  0.99802633     1.65780
Fe66       Fe  0.52409265  0.14161201  0.50102395     1.73250
Fe67       Fe  0.52295801  0.07250957  0.49975299     1.54410
O68         O  0.58521624  0.06912928  0.45824546    -0.81220
O69         O  0.47249871  0.11715777  0.05580574    -0.79530
O70         O  0.66376465  0.11734006  0.44341668    -0.83730
O71         O  0.66783378  0.10985810  0.03962176    -0.78590
O72         O  0.47029433  0.07065028  0.44550009    -0.80360
O73         O  0.58783905  0.17592718  0.04244253    -0.83100
C74         C  0.63011909  0.08525653  0.06108707     0.97660
C75         C  0.63462916  0.08783684  0.43731473     1.05100
O76         O  0.56952841  0.11859812  0.49949158    -1.12090
O77         O  0.57131284  0.16838931  0.44661749    -0.74520
O78         O  0.66800798  0.17661963  0.45637733    -0.78010
O79         O  0.57147262  0.07054719  0.05411291    -0.78690
C80         C  0.62954534  0.18307434  0.43801401     0.96570
O81         O  0.66762305  0.16778805  0.05266158    -0.76650
O82         O  0.45411911  0.11036408  0.45971984    -0.81850
C83         C  0.44263595  0.08767271  0.06264807     0.99190
C84         C  0.44104877  0.08545304  0.43901649     1.05110
O85         O  0.45369381  0.06887063  0.04140291    -0.77490
C86         C  0.63853339  0.18220475  0.06171324     1.03410
C87         C  0.74330327  0.29082543  0.17854963     0.03580
C88         C  0.70835362  0.30350773  0.19739335    -0.12570
C89         C  0.73895465  0.33495283  0.21138080     0.01080
C90         C  0.80345153  0.35317904  0.20313188    -0.11100
C91         C  0.83684391  0.33717468  0.20645481     0.03570
C92         C  0.80874370  0.30724677  0.18749126    -0.10520
H93         H  0.65888998  0.28861352  0.20431659     0.09170
H94         H  0.82716398  0.37761223  0.21301662     0.06700
H95         H  0.83750198  0.29668269  0.18341063     0.06540
C96         C  0.22490865  0.03287582  0.17569864     0.03580
C97         C  0.19699108  0.05026157  0.18986311    -0.12570
C98         C  0.13670749  0.03413957  0.20852597     0.01080
C99         C  0.10289932  0.00135044  0.20364104    -0.11100
C100        C  0.13781855  0.98616381  0.20830821     0.03570
C101        C  0.19791757  0.00122972  0.18956626    -0.10520
H102        H  0.22279073  0.07573490  0.18860412     0.09170
H103        H  0.05462065  0.98888180  0.21468179     0.06700
H104        H  0.22477179  0.98933465  0.18824682     0.06540
C105        C  0.06562217  0.36893125  0.32035575     0.03580
C106        C  0.00262497  0.35198782  0.30630579    -0.12570
C107        C  0.97424016  0.36840618  0.28941126     0.01080
C108        C  0.00658596  0.40111731  0.29544046    -0.11100
C109        C  0.07192180  0.41632335  0.29017332     0.03570
C110        C  0.10210707  0.40078596  0.30736111    -0.10520
H111        H  0.97777842  0.32651143  0.30576238     0.09170
H112        H  0.98321378  0.41382984  0.28559734     0.06700
H113        H  0.15282962  0.41271336  0.30848499     0.06540
C114        C  0.06510695  0.37160669  0.17365734     0.03580
C115        C  0.00214265  0.35399324  0.18753949    -0.12570
C116        C  0.97379582  0.36976044  0.20641816     0.01080
C117        C  0.00599247  0.40266594  0.20218821    -0.11100
C118        C  0.07136300  0.41774634  0.20701541     0.03570
C119        C  0.10149168  0.40303321  0.18770063    -0.10520
H120        H  0.97712985  0.32853918  0.18601007     0.09170
H121        H  0.98263651  0.41495376  0.21360383     0.06700
H122        H  0.15220951  0.41491566  0.18634338     0.06540
Fe123      Fe  0.14748059  0.26209462  0.50120710     1.65780
Fe124      Fe  0.28547865  0.33210979  0.50083235     1.73250
Fe125      Fe  0.28749792  0.26311699  0.49920677     1.54410
O126        O  0.23528309  0.23270610  0.04930621    -0.81220
O127        O  0.35278674  0.33656802  0.45719100    -0.79530
O128        O  0.14203963  0.22977573  0.04735223    -0.83730
O129        O  0.14132923  0.23291896  0.44990987    -0.78590
O130        O  0.35196153  0.29221593  0.04555726    -0.80360
O131        O  0.23484921  0.33472452  0.44830558    -0.83100
C132        C  0.17583980  0.22209728  0.43731558     0.97660
C133        C  0.17907170  0.22111020  0.06234431     1.05100
O134        O  0.24004556  0.28570943  0.00045394    -1.12090
O135        O  0.22580971  0.33564119  0.04446548    -0.74520
O136        O  0.14141319  0.28816680  0.05260092    -0.78010
O137        O  0.22972723  0.23108198  0.45325063    -0.78690
C138        C  0.17358522  0.31712928  0.06223082     0.96570
O139        O  0.14107530  0.29143434  0.45501184    -0.76650
O140        O  0.34055690  0.33408282  0.05340358    -0.81850
C141        C  0.36999464  0.31910516  0.43900722     0.99190
C142        C  0.36562130  0.31789146  0.06430783     1.05110
O143        O  0.34532085  0.29009123  0.44821279    -0.77490
C144        C  0.17799069  0.31773553  0.43683578     1.03410
C145        C  0.58628357  0.37357794  0.32385877     0.03580
C146        C  0.61576765  0.35641975  0.31169278    -0.12570
C147        C  0.67598299  0.37243806  0.29304913     0.01080
C148        C  0.71009782  0.40517613  0.29817682    -0.11100
C149        C  0.67577464  0.42067229  0.29361021     0.03570
C150        C  0.61492816  0.40549020  0.31089139    -0.10520
H151        H  0.59143555  0.33103071  0.31407040     0.09170
H152        H  0.75842457  0.41750656  0.28721251     0.06700
H153        H  0.58814388  0.41745616  0.31072176     0.06540
C154        C  0.58548489  0.37323680  0.17816477     0.03580
C155        C  0.61117052  0.40382852  0.19576282    -0.12570
C156        C  0.67307847  0.41972979  0.21115362     0.01080
C157        C  0.70893976  0.40527230  0.20470250    -0.11100
C158        C  0.67638640  0.37246277  0.20913922     0.03570
C159        C  0.61652224  0.35639246  0.18976901    -0.10520
H160        H  0.58202879  0.41421574  0.20067052     0.09170
H161        H  0.75752153  0.41794015  0.21502301     0.06700
H162        H  0.59402185  0.33115052  0.18693786     0.06540
C163        C  0.12664967  0.46727992  0.24963468     0.01020
C164        C  0.09705984  0.43562192  0.24897866     0.01010
C165        C  0.52316448  0.37708211  0.38388464    -0.11820
C166        C  0.52677540  0.35922731  0.34937160     0.05190
C167        C  0.47599798  0.32828944  0.34258528    -0.07100
C168        C  0.42533280  0.31558763  0.37236131    -0.07850
C169        C  0.42240796  0.33359006  0.40703174    -0.02400
C170        C  0.47153602  0.36499929  0.41193932     0.04420
N171        N  0.47144659  0.38466491  0.44646665     0.66920
H172        H  0.56161693  0.40071500  0.38981251     0.15820
H173        H  0.38698268  0.29175933  0.36770045     0.15530
N174        N  0.47354913  0.31005748  0.30502425     0.74630
O175        O  0.51288881  0.39394149  0.47606782    -0.38820
O176        O  0.43988499  0.39824168  0.44184449    -0.38770
O177        O  0.44679690  0.28045734  0.30788184    -0.39470
O178        O  0.49108452  0.32300489  0.26768387    -0.39540
C179        C  0.48678230  0.32589481  0.14960164    -0.11820
C180        C  0.52565579  0.35888188  0.15178798     0.05190
C181        C  0.50752818  0.37769635  0.12693718    -0.07100
C182        C  0.45232422  0.36342945  0.10210551    -0.07850
C183        C  0.41586908  0.33068464  0.09820725    -0.02400
C184        C  0.43324190  0.31165133  0.12264290     0.04420
N185        N  0.39745797  0.27791335  0.12063671     0.66920
H186        H  0.49712221  0.31060294  0.16901912     0.15820
H187        H  0.44078013  0.37838262  0.08265174     0.15530
N188        N  0.54650260  0.41120955  0.12325627     0.74630
O189        O  0.42513515  0.26223243  0.11884615    -0.38820
O190        O  0.33868309  0.26361279  0.12546220    -0.38770
O191        O  0.60100495  0.42298358  0.10737198    -0.39470
O192        O  0.52308974  0.42860235  0.12889988    -0.39540
C193        C  0.12799540  0.35075828  0.07397674    -0.11820
C194        C  0.14746339  0.33091735  0.09248348     0.05190
C195        C  0.14205744  0.32529968  0.13839777    -0.07100
C196        C  0.11294608  0.33798899  0.16425070    -0.07850
C197        C  0.09257283  0.35742087  0.14542576    -0.02400
C198        C  0.10099187  0.36433324  0.09980943     0.04420
N199        N  0.08267997  0.38497610  0.07913177     0.66920
H200        H  0.13315166  0.35535315  0.03882946     0.15820
H201        H  0.10848099  0.33385081  0.19948380     0.15530
N202        N  0.16952694  0.30886877  0.15949140     0.74630
O203        O  0.11190912  0.40100140  0.04568299    -0.38820
O204        O  0.03446220  0.38545652  0.09172215    -0.38770
O205        O  0.22175076  0.31309292  0.14639840    -0.39470
O206        O  0.14718156  0.29431154  0.19529689    -0.39540
C207        C  0.14820272  0.35447129  0.33461972    -0.11820
C208        C  0.09264725  0.35352833  0.34745735     0.05190
C209        C  0.06549588  0.34003594  0.38842898    -0.07100
C210        C  0.09469433  0.32857661  0.41613382    -0.07850
C211        C  0.15093209  0.33000480  0.40414223    -0.02400
C212        C  0.17784948  0.34273722  0.36233982     0.04420
N213        N  0.23264090  0.34267120  0.34633512     0.66920
H214        H  0.16890374  0.36467640  0.30299347     0.15820
H215        H  0.07370275  0.31901395  0.44796902     0.15530
N216        N  0.01022238  0.33957806  0.40367257     0.74630
O217        O  0.23642098  0.33747934  0.30611476    -0.38820
O218        O  0.28071075  0.35221676  0.37016164    -0.38770
O219        O  0.95697744  0.31718578  0.39293653    -0.39470
O220        O  0.01440165  0.35773406  0.43432073    -0.39540
C221        C  0.33650616  0.07404133  0.16145279    -0.11820
C222        C  0.28132453  0.04720644  0.14742692     0.05190
C223        C  0.28023889  0.03373179  0.10624480    -0.07100
C224        C  0.33469218  0.04694938  0.08063573    -0.07850
C225        C  0.38984281  0.07390102  0.09418579    -0.02400
C226        C  0.39129152  0.08749287  0.13545314     0.04420
N227        N  0.44798519  0.11380828  0.15219251     0.66920
H228        H  0.33729523  0.08394616  0.19335251     0.15820
H229        H  0.33306184  0.03693843  0.04863827     0.15530
N230        N  0.22366396  0.00760138  0.08897237     0.74630
O231        O  0.44515109  0.13260268  0.17893096    -0.38820
O232        O  0.50053301  0.11620272  0.14471306    -0.38770
O233        O  0.17179986  0.00663141  0.09299715    -0.39470
O234        O  0.22655515  0.98757496  0.06481195    -0.39540
C235        C  0.63084475  0.22358992  0.10300865    -0.11820
C236        C  0.66412027  0.20787160  0.09500853     0.05190
C237        C  0.72127706  0.21805495  0.11762059    -0.07100
C238        C  0.74266162  0.24297538  0.14757340    -0.07850
C239        C  0.71221544  0.26059368  0.15278282    -0.02400
C240        C  0.65480727  0.25016046  0.12980591     0.04420
N241        N  0.62172615  0.26716980  0.13024451     0.66920
H242        H  0.58713726  0.21653456  0.08597338     0.15820
H243        H  0.78520427  0.24902969  0.16520716     0.15530
N244        N  0.76067566  0.20506649  0.10869405     0.74630
O245        O  0.64628766  0.29421068  0.11295073    -0.38820
O246        O  0.56422050  0.25304514  0.14011907    -0.38770
O247        O  0.78707110  0.20996586  0.07159013    -0.39470
O248        O  0.78073427  0.19571477  0.14021662    -0.39540
C249        C  0.68496920  0.26381636  0.38968424    -0.11820
C250        C  0.71279595  0.26256324  0.35007527     0.05190
C251        C  0.71134717  0.23433584  0.33857758    -0.07100
C252        C  0.68312168  0.20844093  0.36773967    -0.07850
C253        C  0.65453766  0.20979287  0.40695042    -0.02400
C254        C  0.65572752  0.23790514  0.41812745     0.04420
N255        N  0.63112926  0.24133026  0.45929010     0.66920
H256        H  0.68670244  0.28549703  0.39892999     0.15820
H257        H  0.68241329  0.18685346  0.35951551     0.15530
N258        N  0.73611020  0.23114006  0.29733646     0.74630
O259        O  0.66098828  0.26649954  0.48084428    -0.38820
O260        O  0.57604082  0.22145885  0.47100758    -0.38770
O261        O  0.75822283  0.21298454  0.29439853    -0.39470
O262        O  0.72935673  0.24345537  0.26268557    -0.39540
C263        C  0.38911335  0.05654670  0.36979013    -0.11820
C264        C  0.38842709  0.07303948  0.40721121     0.05190
C265        C  0.33650180  0.07716970  0.41428502    -0.07100
C266        C  0.28644844  0.06444767  0.38487200    -0.07850
C267        C  0.28646640  0.04772927  0.34766991    -0.02400
C268        C  0.33929805  0.04437116  0.33928256     0.04420
N269        N  0.34436985  0.02997920  0.29958936     0.66920
H270        H  0.42949434  0.05393680  0.36366750     0.15820
H271        H  0.24602855  0.06684494  0.39206248     0.15530
N272        N  0.33198488  0.09264960  0.45262569     0.74630
O273        O  0.32367952  0.03409775  0.26359160    -0.38820
O274        O  0.37589962  0.01620702  0.29932809    -0.38770
O275        O  0.35050871  0.12167976  0.45097891    -0.39470
O276        O  0.29965762  0.07649528  0.48503020    -0.39540
C277        C  0.09129578  0.16629754  0.15796706    -0.11820
C278        C  0.09493329  0.13969504  0.14633243     0.05190
C279        C  0.12831245  0.14063293  0.10794073    -0.07100
C280        C  0.15883437  0.16846068  0.08312666    -0.07850
C281        C  0.15427857  0.19482780  0.09423656    -0.02400
C282        C  0.12035498  0.19388800  0.13224788     0.04420
N283        N  0.11690567  0.22090579  0.14594019     0.66920
H284        H  0.06674471  0.16576678  0.18775429     0.15820
H285        H  0.18301440  0.16888556  0.05315902     0.15530
N286        N  0.12847301  0.11313009  0.09213246     0.74630
O287        O  0.07192331  0.21762233  0.16953689    -0.38820
O288        O  0.16216272  0.24822441  0.13865853    -0.38770
O289        O  0.07877070  0.08663872  0.09286477    -0.39470
O290        O  0.17554651  0.11595060  0.07171255    -0.39540
C291        C  0.15553607  0.16962741  0.41694076    -0.11820
C292        C  0.15117976  0.19610134  0.40525035     0.05190
C293        C  0.12060123  0.19590222  0.36560955    -0.07100
C294        C  0.09395004  0.16863918  0.33933198    -0.07850
C295        C  0.09745223  0.14193404  0.35168021    -0.02400
C296        C  0.12802001  0.14238295  0.39136106     0.04420
N297        N  0.12816778  0.11486353  0.40769667     0.66920
H298        H  0.17757252  0.16950420  0.44781878     0.15820
H299        H  0.07117301  0.16836595  0.30866507     0.15770
N300        N  0.11782537  0.22311161  0.35089377     0.74630
O301        O  0.17468569  0.11772347  0.42909448    -0.38820
O302        O  0.07869397  0.08829702  0.40660556    -0.38770
O303        O  0.16141784  0.25050801  0.35999706    -0.39470
O304        O  0.07522483  0.21998614  0.32472419    -0.39540
C305        C  0.71494765  0.07525068  0.08193804    -0.11820
C306        C  0.65752365  0.07278304  0.09320309     0.05190
C307        C  0.62982760  0.05931030  0.13435901    -0.07100
C308        C  0.66009215  0.04843590  0.16280144    -0.07850
C309        C  0.71705146  0.05054949  0.15083399    -0.02400
C310        C  0.74470964  0.06433952  0.11006046     0.04420
N311        N  0.80102528  0.06560819  0.09535889     0.66920
H312        H  0.73659300  0.08526687  0.05043504     0.15820
H313        H  0.63857094  0.03783326  0.19408205     0.15530
N314        N  0.57252774  0.05730972  0.14845702     0.74630
O315        O  0.79909732  0.04959934  0.06246815    -0.38820
O316        O  0.85344563  0.08726020  0.10884648    -0.38770
O317        O  0.52198697  0.03936321  0.12863824    -0.39470
O318        O  0.57018674  0.06806457  0.18558362    -0.39540
C319        C  0.68134699  0.08826590  0.36445012    -0.11820
C320        C  0.66010484  0.07430644  0.40603006     0.05190
C321        C  0.66546486  0.04801279  0.41805270    -0.07100
C322        C  0.69390210  0.03705551  0.38925636    -0.07850
C323        C  0.71550655  0.05087410  0.34775031    -0.02400
C324        C  0.70780363  0.07648079  0.33430341     0.04420
N325        N  0.72278540  0.08975894  0.29041081     0.66920
H326        H  0.67638363  0.10823506  0.35526848     0.15820
H327        H  0.69904993  0.01728466  0.39944595     0.15530
N328        N  0.64447040  0.03280542  0.46003455     0.74630
O329        O  0.69623474  0.10402714  0.27506495    -0.38820
O330        O  0.76259154  0.08782120  0.26676084    -0.38770
O331        O  0.58656565  0.01484442  0.46671849    -0.39470
O332        O  0.68319961  0.03140018  0.48582476    -0.39540
C333        C  0.71641617  0.34280076  0.75222199     0.01020
C334        C  0.68770661  0.35992630  0.75141958     0.01010
C335        C  0.87358119  0.34227857  0.74814410     0.01020
C336        C  0.93665581  0.35686152  0.74792055     0.01010
C337        C  0.87366780  0.04912714  0.75212163     0.01020
C338        C  0.93660667  0.06372067  0.75139618     0.01010
C339        C  0.74467219  0.03681308  0.82086278     0.03580
C340        C  0.70847822  0.00533045  0.80702638    -0.12570
C341        C  0.73862961  0.98951220  0.79169155     0.01080
C342        C  0.80359753  0.00406824  0.79844650    -0.11100
C343        C  0.83728577  0.03694868  0.79407975     0.03570
C344        C  0.80952833  0.05327938  0.81183120    -0.10520
H345        H  0.65779983  0.99399292  0.80598639     0.09170
H346        H  0.82674475  0.99135631  0.78840600     0.06700
H347        H  0.83687235  0.07857801  0.81554719     0.06540
C348        C  0.74449260  0.03555413  0.67824035     0.03580
C349        C  0.80681678  0.05299594  0.69344863    -0.12570
C350        C  0.83582458  0.03704340  0.71088167     0.01080
C351        C  0.80492615  0.00437415  0.70483796    -0.11100
C352        C  0.73942127  0.98862351  0.70891970     0.03570
C353        C  0.70878147  0.00356001  0.69057416    -0.10520
H354        H  0.83060054  0.07844765  0.69438092     0.09170
H355        H  0.82872587  0.99209308  0.71576802     0.06700
H356        H  0.65808465  0.99111685  0.68844662     0.06540
C357        C  0.71438840  0.47037074  0.75079700     0.01020
C358        C  0.68667230  0.43883794  0.75182869     0.01010
C359        C  0.06751414  0.11324752  0.82415662     0.03580
C360        C  0.00447924  0.09984286  0.81063104    -0.12570
C361        C  0.97403757  0.06948980  0.79272323     0.01080
C362        C  0.00379793  0.05173940  0.79802455    -0.11100
C363        C  0.06907369  0.06830365  0.79241590     0.03570
C364        C  0.10158159  0.09878398  0.81006712    -0.10520
H365        H  0.98066420  0.11326017  0.81186114     0.09170
H366        H  0.97837163  0.02733482  0.78809456     0.06700
H367        H  0.15237195  0.11170685  0.81058204     0.06540
C368        C  0.06437124  0.11110674  0.67438934     0.03580
C369        C  0.00187400  0.09826593  0.68916984    -0.12570
C370        C  0.97201792  0.06843377  0.70934132     0.01080
C371        C  0.00134857  0.05048759  0.70500592    -0.11100
C372        C  0.06678109  0.06719299  0.70917977     0.03570
C373        C  0.09872713  0.09700408  0.68936969    -0.10520
H374        H  0.97828437  0.11178270  0.68734237     0.09170
H375        H  0.97635047  0.02638546  0.71669396     0.06700
H376        H  0.14950745  0.10988322  0.68816590     0.06540
C377        C  0.09263592  0.06165446  0.75070222     0.01020
C378        C  0.12476509  0.04621784  0.75035731     0.01010
C379        C  0.22788177  0.03221351  0.82142777     0.03580
C380        C  0.19894477  0.04949141  0.80835063    -0.12570
C381        C  0.13783030  0.03364952  0.79154154     0.01080
C382        C  0.10398780  0.00081133  0.79682223    -0.11100
C383        C  0.13829819  0.98532959  0.79160882     0.03570
C384        C  0.19899205  0.00017666  0.80948327    -0.10520
H385        H  0.22532881  0.07498338  0.80836615     0.09170
H386        H  0.05536401  0.98848795  0.78659121     0.06700
H387        H  0.22431316  0.98753081  0.81148081     0.06540
C388        C  0.74426563  0.29191271  0.82341809     0.03580
C389        C  0.71068443  0.30719259  0.81222751    -0.12570
C390        C  0.74236644  0.33738839  0.79371689     0.01080
C391        C  0.80799736  0.35377455  0.79668325    -0.11100
C392        C  0.83700331  0.33583222  0.79017605     0.03570
C393        C  0.80686675  0.30527588  0.80840747    -0.10520
H394        H  0.65995423  0.29461592  0.81434706     0.09170
H395        H  0.83275854  0.37800257  0.78543389     0.06700
H396        H  0.83036362  0.29169642  0.80860126     0.06540
Fe397      Fe  0.66139820  0.14154388  0.49802585     1.65780
Fe398      Fe  0.52409966  0.14161548  0.00102422     1.73250
Fe399      Fe  0.52296552  0.07251335  0.99975272     1.54410
O400        O  0.58522322  0.06913255  0.95824793    -0.81220
O401        O  0.47249457  0.11715592  0.55580648    -0.79530
O402        O  0.66377286  0.11734258  0.94341829    -0.83730
O403        O  0.66782802  0.10985476  0.53961888    -0.78590
O404        O  0.47030534  0.07065418  0.94549861    -0.80360
O405        O  0.58783369  0.17592398  0.54244022    -0.83100
C406        C  0.63011570  0.08525320  0.56108475     0.97660
C407        C  0.63463503  0.08783935  0.93731624     1.05100
O408        O  0.56953615  0.11860195  0.99949171    -1.12090
O409        O  0.57132234  0.16839456  0.94661899    -0.74520
O410        O  0.66801660  0.17662269  0.95637538    -0.78010
O411        O  0.57146858  0.07054320  0.55411221    -0.78690
C412        C  0.62955443  0.18307849  0.93801346     0.96570
O413        O  0.66761460  0.16778301  0.55266250    -0.76650
O414        O  0.45412794  0.11036729  0.95971823    -0.81850
C415        C  0.44263113  0.08767110  0.56265007     0.99190
C416        C  0.44105837  0.08545615  0.93901531     1.05110
O417        O  0.45368776  0.06886800  0.54140584    -0.77490
C418        C  0.63852623  0.18220055  0.56171256     1.03410
C419        C  0.74329510  0.29082380  0.67854103     0.03580
C420        C  0.70834461  0.30350554  0.69738455    -0.12570
C421        C  0.73894390  0.33495112  0.71136917     0.01080
C422        C  0.80344047  0.35317814  0.70311878    -0.11100
C423        C  0.83683552  0.33717502  0.70644116     0.03570
C424        C  0.80873628  0.30724683  0.68747884    -0.10520
H425        H  0.65888149  0.28861070  0.70430911     0.09170
H426        H  0.82715184  0.37761160  0.71300215     0.06700
H427        H  0.83749614  0.29668351  0.68339621     0.06540
C428        C  0.22490608  0.03287938  0.67570341     0.03580
C429        C  0.19699297  0.05026400  0.68988277    -0.12570
C430        C  0.13670874  0.03413928  0.70854508     0.01080
C431        C  0.10289802  0.00135124  0.70364772    -0.11100
C432        C  0.13781512  0.98616273  0.70830279     0.03570
C433        C  0.19791270  0.00123069  0.68955904    -0.10520
H434        H  0.22279479  0.07573752  0.68863347     0.09170
H435        H  0.05461941  0.98888130  0.71468856     0.06700
H436        H  0.22476447  0.98933468  0.68822924     0.06540
C437        C  0.06561493  0.36892958  0.82034200     0.03580
C438        C  0.00261965  0.35198464  0.80628954    -0.12570
C439        C  0.97423276  0.36840241  0.78939576     0.01080
C440        C  0.00657697  0.40111351  0.79542476    -0.11100
C441        C  0.07191279  0.41631970  0.79015850     0.03570
C442        C  0.10209869  0.40078395  0.80734864    -0.10520
H443        H  0.97777704  0.32650833  0.80574333     0.09170
H444        H  0.98320453  0.41382575  0.78558076     0.06700
H445        H  0.15282140  0.41271112  0.80847224     0.06540
C446        C  0.06509824  0.37160066  0.67364255     0.03580
C447        C  0.00213414  0.35398843  0.68752553    -0.12570
C448        C  0.97378856  0.36975654  0.70640317     0.01080
C449        C  0.00598673  0.40266217  0.70217239    -0.11100
C450        C  0.07135736  0.41774240  0.70699975     0.03570
C451        C  0.10148444  0.40302783  0.68768502    -0.10520
H452        H  0.97712038  0.32853430  0.68599789     0.09170
H453        H  0.98263148  0.41495050  0.71358726     0.06700
H454        H  0.15220217  0.41490940  0.68632821     0.06540
Fe455      Fe  0.14750364  0.26211535  0.00117488     1.65780
Fe456      Fe  0.28551272  0.33214341  0.00085067     1.73250
Fe457      Fe  0.28752908  0.26314162  0.99920543     1.54410
O458        O  0.23531683  0.23271222  0.54935319    -0.81220
O459        O  0.35275475  0.33660260  0.95714351    -0.79530
O460        O  0.14202238  0.22972157  0.54731991    -0.83730
O461        O  0.14135854  0.23290384  0.94993436    -0.78590
O462        O  0.35198585  0.29222407  0.54551194    -0.80360
O463        O  0.23482378  0.33478611  0.94838629    -0.83100
C464        C  0.17590756  0.22211561  0.93730178     0.97660
C465        C  0.17908071  0.22108573  0.56235025     1.05100
O466        O  0.24001576  0.28568143  0.50045926    -1.12090
O467        O  0.22570995  0.33561991  0.54437882    -0.74520
O468        O  0.14145100  0.28811912  0.55269610    -0.78010
O469        O  0.22982672  0.23113252  0.95319904    -0.78690
C470        C  0.17355730  0.31710105  0.56223147     0.96570
O471        O  0.14113059  0.29141844  0.95490414    -0.76650
O472        O  0.34045093  0.33404805  0.55343762    -0.81850
C473        C  0.37001818  0.31914745  0.93900314     0.99190
C474        C  0.36558277  0.31787931  0.56430157     1.05110
O475        O  0.34541953  0.29014482  0.94825977    -0.77490
C476        C  0.17802484  0.31775412  0.93680715     1.03410
C477        C  0.58628793  0.37358994  0.82384642     0.03580
C478        C  0.61576109  0.35642598  0.81168188    -0.12570
C479        C  0.67597475  0.37243881  0.79303413     0.01080
C480        C  0.71009766  0.40517706  0.79815542    -0.11100
C481        C  0.67578055  0.42067603  0.79358685     0.03570
C482        C  0.61493807  0.40550049  0.81087230    -0.10520
H483        H  0.59142217  0.33103704  0.81406411     0.09170
H484        H  0.75842290  0.41750376  0.78718763     0.06700
H485        H  0.58816032  0.41746989  0.81070081     0.06540
C486        C  0.58546616  0.37323457  0.67814953     0.03580
C487        C  0.61116309  0.40382899  0.69574285    -0.12570
C488        C  0.67307470  0.41972928  0.71112996     0.01080
C489        C  0.70892743  0.40526697  0.70468048    -0.11100
C490        C  0.67636729  0.37245780  0.70912423     0.03570
C491        C  0.61650024  0.35638875  0.68975806    -0.10520
H492        H  0.58202584  0.41421788  0.70065631     0.09170
H493        H  0.75751069  0.41793308  0.71499780     0.06700
H494        H  0.59399627  0.33114637  0.68693575     0.06540
C495        C  0.12665128  0.46727573  0.74962488     0.01020
C496        C  0.09705358  0.43561766  0.74896445     0.01010
C497        C  0.52318441  0.37710878  0.88387143    -0.11820
C498        C  0.52678350  0.35924766  0.84936178     0.05190
C499        C  0.47599570  0.32831254  0.84257865    -0.07100
C500        C  0.42533109  0.31561928  0.87235417    -0.07850
C501        C  0.42241797  0.33362812  0.90701982    -0.02400
C502        C  0.47155573  0.36503432  0.91192551     0.04420
N503        N  0.47147935  0.38470231  0.94645458     0.66920
H504        H  0.56164612  0.40073962  0.88979689     0.15820
H505        H  0.38697367  0.29179212  0.86769857     0.15530
N506        N  0.47353781  0.31007453  0.80502262     0.74630
O507        O  0.51295190  0.39399375  0.97603553    -0.38820
O508        O  0.43989550  0.39826847  0.94184768    -0.38770
O509        O  0.44677675  0.28047441  0.80788735    -0.39470
O510        O  0.49107485  0.32301703  0.76767947    -0.39540
C511        C  0.48677318  0.32588896  0.64957423    -0.11820
C512        C  0.52562788  0.35887699  0.65177736     0.05190
C513        C  0.50747370  0.37768850  0.62694368    -0.07100
C514        C  0.45226510  0.36341820  0.60211506    -0.07850
C515        C  0.41583292  0.33067411  0.59819992    -0.02400
C516        C  0.43323254  0.31164339  0.62261559     0.04420
N517        N  0.39747537  0.27790544  0.62058895     0.66920
H518        H  0.49712747  0.31059642  0.66897676     0.15820
H519        H  0.44070016  0.37836909  0.58267470     0.15530
N520        N  0.54642596  0.41120323  0.62327433     0.74630
O521        O  0.42517690  0.26223665  0.61878558    -0.38820
O522        O  0.33869869  0.26359137  0.62540695    -0.38770
O523        O  0.60091979  0.42298921  0.60737095    -0.39470
O524        O  0.52299510  0.42858565  0.62894301    -0.39540
C525        C  0.12799488  0.35074527  0.57397052    -0.11820
C526        C  0.14744184  0.33089635  0.59248003     0.05190
C527        C  0.14201692  0.32527528  0.63839370    -0.07100
C528        C  0.11291411  0.33797125  0.66424251    -0.07850
C529        C  0.09256239  0.35741117  0.64541464    -0.02400
C530        C  0.10099289  0.36432376  0.59979845     0.04420
N531        N  0.08268788  0.38496760  0.57911507     0.66920
H532        H  0.13315979  0.35534083  0.53882357     0.15820
H533        H  0.10843925  0.33383161  0.69947524     0.15530
N534        N  0.16947158  0.30883939  0.65949256     0.74630
O535        O  0.11191382  0.40098591  0.54566078    -0.38820
O536        O  0.03447384  0.38545255  0.59170306    -0.38770
O537        O  0.22170617  0.31306858  0.64641638    -0.39470
O538        O  0.14710441  0.29427565  0.69529066    -0.39540
C539        C  0.14815773  0.35444085  0.83455906    -0.11820
C540        C  0.09264801  0.35352891  0.84743719     0.05190
C541        C  0.06556203  0.34007530  0.88843679    -0.07100
C542        C  0.09479170  0.32862980  0.91613321    -0.07850
C543        C  0.15097869  0.33001845  0.90409916    -0.02400
C544        C  0.17782708  0.34270112  0.86225391     0.04420
N545        N  0.23253390  0.34257351  0.84616546     0.66920
H546        H  0.16879292  0.36462070  0.80290833     0.15820
H547        H  0.07385425  0.31909902  0.94799262     0.15530
N548        N  0.01032086  0.33963814  0.90371155     0.74630
O549        O  0.23648069  0.33767466  0.80585132    -0.38820
O550        O  0.28034270  0.35164827  0.87012892    -0.38770
O551        O  0.95705502  0.31729156  0.89291548    -0.39470
O552        O  0.01452922  0.35774300  0.93444326    -0.39540
C553        C  0.33650464  0.07404425  0.66145563    -0.11820
C554        C  0.28131897  0.04721223  0.64742837     0.05190
C555        C  0.28022813  0.03373959  0.60624345    -0.07100
C556        C  0.33468196  0.04695378  0.58063517    -0.07850
C557        C  0.38983760  0.07390157  0.59418756    -0.02400
C558        C  0.39128971  0.08749363  0.63545559     0.04420
N559        N  0.44798624  0.11380711  0.65219517     0.66920
H560        H  0.33729747  0.08394806  0.69335688     0.15820
H561        H  0.33304857  0.03694370  0.54863650     0.15530
N562        N  0.22364739  0.00761470  0.58896787     0.74630
O563        O  0.44515682  0.13260286  0.67893354    -0.38820
O564        O  0.50053174  0.11619916  0.64471457    -0.38770
O565        O  0.17178969  0.00665121  0.59299492    -0.39470
O566        O  0.22652797  0.98758737  0.56480289    -0.39540
C567        C  0.63083730  0.22358641  0.60300454    -0.11820
C568        C  0.66411219  0.20786740  0.59500737     0.05190
C569        C  0.72126741  0.21805032  0.61762137    -0.07100
C570        C  0.74265201  0.24297184  0.64757219    -0.07850
C571        C  0.71220721  0.26059106  0.65277750    -0.02400
C572        C  0.65479988  0.25015773  0.62979974     0.04420
N573        N  0.62172021  0.26716783  0.63023519     0.66920
H574        H  0.58713050  0.21653110  0.58596816     0.15820
H575        H  0.78519408  0.24902651  0.66520798     0.15530
N576        N  0.76066412  0.20506019  0.60869877     0.74630
O577        O  0.64628369  0.29420837  0.61294011    -0.38820
O578        O  0.56421439  0.25304421  0.64010911    -0.38770
O579        O  0.78706241  0.20995824  0.57159614    -0.39470
O580        O  0.78071840  0.19570814  0.64022363    -0.39540
C581        C  0.68497037  0.26381899  0.88967770    -0.11820
C582        C  0.71279662  0.26256560  0.85006860     0.05190
C583        C  0.71135201  0.23433868  0.83857353    -0.07100
C584        C  0.68313055  0.20844472  0.86773781    -0.07850
C585        C  0.65454642  0.20979681  0.90694853    -0.02400
C586        C  0.65573295  0.23790869  0.91812313     0.04420
N587        N  0.63113577  0.24133457  0.95928570     0.66920
H588        H  0.68670074  0.28549923  0.89892194     0.15820
H589        H  0.68242480  0.18685767  0.85951511     0.15530
N590        N  0.73611484  0.23114223  0.79733272     0.74630
O591        O  0.66099611  0.26650402  0.98083931    -0.38820
O592        O  0.57604674  0.22146401  0.97100316    -0.38770
O593        O  0.75823099  0.21298813  0.79439634    -0.39470
O594        O  0.72935785  0.24345534  0.76268078    -0.39540
C595        C  0.38912520  0.05655168  0.86978776    -0.11820
C596        C  0.38843382  0.07303997  0.90721267     0.05190
C597        C  0.33649569  0.07715794  0.91429690    -0.07100
C598        C  0.28643611  0.06442902  0.88488921    -0.07850
C599        C  0.28646221  0.04771809  0.84768053    -0.02400
C600        C  0.33930447  0.04437077  0.83928446     0.04420
N601        N  0.34438133  0.02998460  0.79958699     0.66920
H602        H  0.42951419  0.05394970  0.86365875     0.15820
H603        H  0.24600807  0.06681783  0.89208642     0.15530
N604        N  0.33197388  0.09263301  0.95264167     0.74630
O605        O  0.32368687  0.03410438  0.76359194    -0.38820
O606        O  0.37591993  0.01621712  0.79931952    -0.38770
O607        O  0.35055214  0.12166951  0.95101267    -0.39470
O608        O  0.29957844  0.07647360  0.98502026    -0.39540
C609        C  0.09130639  0.16628566  0.65797812    -0.11820
C610        C  0.09493811  0.13968091  0.64634950     0.05190
C611        C  0.12831194  0.14061224  0.60795818    -0.07100
C612        C  0.15884196  0.16843817  0.58314075    -0.07850
C613        C  0.15429276  0.19480752  0.59424607    -0.02400
C614        C  0.12036663  0.19387255  0.63225324     0.04420
N615        N  0.11690852  0.22089058  0.64593237     0.66920
H616        H  0.06675588  0.16575888  0.68776367     0.15820
H617        H  0.18302027  0.16885985  0.55317387     0.15530
N618        N  0.12845642  0.11310451  0.59215336     0.74630
O619        O  0.07192590  0.21760838  0.66952768    -0.38820
O620        O  0.16215347  0.24820968  0.63863379    -0.38770
O621        O  0.07874799  0.08661576  0.59289321    -0.39470
O622        O  0.17552080  0.11591777  0.57172899    -0.39540
C623        C  0.15562113  0.16964872  0.91693140    -0.11820
C624        C  0.15125105  0.19611819  0.90524013     0.05190
C625        C  0.12063699  0.19590830  0.86561203    -0.07100
C626        C  0.09396799  0.16863909  0.83934640    -0.07850
C627        C  0.09747930  0.14193667  0.85169680    -0.02400
C628        C  0.12808085  0.14239665  0.89136669     0.04420
N629        N  0.12823570  0.11488069  0.90770945     0.66920
H630        H  0.17768200  0.16953421  0.94780204     0.15820
H631        H  0.07116655  0.16835832  0.80868790     0.15770
N632        N  0.11783731  0.22311204  0.85089897     0.74630
O633        O  0.17476582  0.11774501  0.92909554    -0.38820
O634        O  0.07875808  0.08831500  0.90664016    -0.38770
O635        O  0.16141417  0.25051180  0.86000467    -0.39470
O636        O  0.07522513  0.21997896  0.82473521    -0.39540
C637        C  0.71494754  0.07524842  0.58192823    -0.11820
C638        C  0.65752581  0.07278136  0.59319898     0.05190
C639        C  0.62984269  0.05931487  0.63436018    -0.07100
C640        C  0.66011712  0.04844537  0.66280153    -0.07850
C641        C  0.71707453  0.05055858  0.65082892    -0.02400
C642        C  0.74472215  0.06434369  0.61005024     0.04420
N643        N  0.80103957  0.06561529  0.59534333     0.66920
H644        H  0.73658405  0.08526173  0.55042200     0.15820
H645        H  0.63860401  0.03784566  0.69408531     0.15530
N646        N  0.57254623  0.05731557  0.64846431     0.74630
O647        O  0.79913530  0.04965989  0.56239294    -0.38820
O648        O  0.85345421  0.08723451  0.60889275    -0.38770
O649        O  0.52200221  0.03937160  0.62864730    -0.39470
O650        O  0.57021162  0.06806980  0.68559293    -0.39540
C651        C  0.68135673  0.08827214  0.86445228    -0.11820
C652        C  0.66010123  0.07430708  0.90602734     0.05190
C653        C  0.66542710  0.04800205  0.91803840    -0.07100
C654        C  0.69384047  0.03703690  0.88923484    -0.07850
C655        C  0.71545859  0.05086052  0.84773316    -0.02400
C656        C  0.70779027  0.07648047  0.83429528     0.04420
N657        N  0.72279296  0.08977047  0.79040709     0.66920
H658        H  0.67641748  0.10825042  0.85528345     0.15820
H659        H  0.69896861  0.01725912  0.89941884     0.15530
N660        N  0.64443047  0.03279347  0.96001905     0.74630
O661        O  0.69642346  0.10414461  0.77512317    -0.38820
O662        O  0.76237402  0.08769967  0.76667399    -0.38770
O663        O  0.58652597  0.01482914  0.96669953    -0.39470
O664        O  0.68316082  0.03139296  0.98581344    -0.39540
C665        C  0.71642445  0.84279948  0.25223728     0.01020
C666        C  0.68772274  0.85992843  0.25143583     0.01010
C667        C  0.87358217  0.84227159  0.24816138     0.01020
C668        C  0.93665699  0.85685799  0.24794057     0.01010
C669        C  0.87364322  0.54912609  0.25210789     0.01020
C670        C  0.93658263  0.56372417  0.25137461     0.01010
C671        C  0.74467647  0.53681962  0.32087643     0.03580
C672        C  0.70847541  0.50533553  0.30704672    -0.12570
C673        C  0.73861861  0.48951380  0.29170857     0.01080
C674        C  0.80358960  0.50407046  0.29844811    -0.11100
C675        C  0.83727624  0.53695017  0.29407349     0.03570
C676        C  0.80953014  0.55328290  0.31183550    -0.10520
H677        H  0.65779671  0.49399842  0.30601692     0.09170
H678        H  0.82673194  0.49135718  0.28840272     0.06700
H679        H  0.83688731  0.57858005  0.31556284     0.06540
C680        C  0.74443919  0.53554579  0.17825443     0.03580
C681        C  0.80677307  0.55298918  0.19344473    -0.12570
C682        C  0.83578741  0.53703842  0.21087377     0.01080
C683        C  0.80488273  0.50436817  0.20483987    -0.11100
C684        C  0.73937983  0.48861948  0.20893817     0.03570
C685        C  0.70873215  0.50355413  0.19060020    -0.10520
H686        H  0.83056125  0.57844125  0.19436514     0.09170
H687        H  0.82868609  0.49208781  0.21576501     0.06700
H688        H  0.65803433  0.49111106  0.18848465     0.06540
C689        C  0.71439078  0.97036839  0.25081671     0.01020
C690        C  0.68667004  0.93883539  0.25185300     0.01010
C691        C  0.06748515  0.61324992  0.32413789     0.03580
C692        C  0.00445333  0.59984609  0.31060817    -0.12570
C693        C  0.97401576  0.56949397  0.29269931     0.01080
C694        C  0.00377491  0.55174330  0.29800168    -0.11100
C695        C  0.06905075  0.56830817  0.29239686     0.03570
C696        C  0.10155608  0.59878778  0.31005059    -0.10520
H697        H  0.98063698  0.61326280  0.31183812     0.09170
H698        H  0.97835011  0.52733916  0.28806929     0.06700
H699        H  0.15234629  0.61171044  0.31057100     0.06540
C700        C  0.06435419  0.61111825  0.17437547     0.03580
C701        C  0.00185347  0.59827436  0.18915157    -0.12570
C702        C  0.97199454  0.56843992  0.20931817     0.01080
C703        C  0.00133026  0.55049573  0.20498256    -0.11100
C704        C  0.06676309  0.56720182  0.20916068     0.03570
C705        C  0.09870941  0.59701485  0.18935538    -0.10520
H706        H  0.97826313  0.61179080  0.18732519     0.09170
H707        H  0.97633258  0.52639283  0.21666751     0.06700
H708        H  0.14948992  0.60989504  0.18815550     0.06540
C709        C  0.09261525  0.56166069  0.25068382     0.01020
C710        C  0.12474133  0.54622233  0.25034118     0.01010
C711        C  0.22787135  0.53222669  0.32141270     0.03580
C712        C  0.19892872  0.54950191  0.30833410    -0.12570
C713        C  0.13781283  0.53365698  0.29152637     0.01080
C714        C  0.10397660  0.50081884  0.29680880    -0.11100
C715        C  0.13829278  0.48533997  0.29159686     0.03570
C716        C  0.19898569  0.50018956  0.30947153    -0.10520
H717        H  0.22530901  0.57499390  0.30834788     0.09170
H718        H  0.05535246  0.48849278  0.28657876     0.06700
H719        H  0.22430915  0.48754500  0.31147179     0.06540
C720        C  0.74425807  0.79190585  0.32342957     0.03580
C721        C  0.71068227  0.80718853  0.31224027    -0.12570
C722        C  0.74236975  0.83738472  0.29373219     0.01080
C723        C  0.80800030  0.85376849  0.29670046    -0.11100
C724        C  0.83700149  0.83582411  0.29019197     0.03570
C725        C  0.80685922  0.80526685  0.30842022    -0.10520
H726        H  0.65995198  0.79461379  0.31435871     0.09170
H727        H  0.83276540  0.87799693  0.28545296     0.06700
H728        H  0.83035186  0.79168537  0.30861296     0.06540
Fe729      Fe  0.66137622  0.64154009  0.99803064     1.65780
Fe730      Fe  0.52407526  0.64161268  0.50102717     1.73250
Fe731      Fe  0.52292257  0.57250752  0.49975482     1.54410
O732        O  0.58518848  0.56912325  0.45825881    -0.81220
O733        O  0.47249436  0.61716375  0.05581583    -0.79530
O734        O  0.66372592  0.61733413  0.44341687    -0.83730
O735        O  0.66779084  0.60984433  0.03962050    -0.78590
O736        O  0.47028047  0.57065547  0.44549309    -0.80360
O737        O  0.58783276  0.67593060  0.04243738    -0.83100
C738        C  0.63007151  0.58524659  0.06109145     0.97660
C739        C  0.63459571  0.58783018  0.43732186     1.05100
O740        O  0.56950120  0.61859533  0.49949475    -1.12090
O741        O  0.57129045  0.66838328  0.44661482    -0.74520
O742        O  0.66798630  0.67661713  0.45638701    -0.78010
O743        O  0.57142302  0.57054350  0.05412346    -0.78690
C744        C  0.62952494  0.68307026  0.43801751     0.96570
O745        O  0.66759642  0.66777769  0.05267035    -0.76650
O746        O  0.45409143  0.61036252  0.45972990    -0.81850
C747        C  0.44260549  0.58767717  0.06264295     0.99190
C748        C  0.44102871  0.58545600  0.43901698     1.05110
O749        O  0.45364396  0.56887131  0.04138999    -0.77490
C750        C  0.63851929  0.68220192  0.06171441     1.03410
C751        C  0.74329824  0.79082239  0.17855128     0.03580
C752        C  0.70834968  0.80350494  0.19739604    -0.12570
C753        C  0.73895190  0.83494992  0.21138404     0.01080
C754        C  0.80344891  0.85317560  0.20313524    -0.11100
C755        C  0.83683989  0.83717048  0.20645737     0.03570
C756        C  0.80873866  0.80724299  0.18749259    -0.10520
H757        H  0.65888588  0.78861109  0.20431911     0.09170
H758        H  0.82716240  0.87760867  0.21302065     0.06700
H759        H  0.83749610  0.79667849  0.18341091     0.06540
C760        C  0.22489063  0.53288962  0.17569296     0.03580
C761        C  0.19697306  0.55027125  0.18987194    -0.12570
C762        C  0.13668795  0.53414385  0.20853114     0.01080
C763        C  0.10288307  0.50135533  0.20363538    -0.11100
C764        C  0.13780572  0.48616945  0.20828903     0.03570
C765        C  0.19790024  0.50123918  0.18953844    -0.10520
H766        H  0.22277430  0.57574489  0.18862472     0.09170
H767        H  0.05460500  0.48888336  0.21467713     0.06700
H768        H  0.22475420  0.48934461  0.18820038     0.06540
C769        C  0.06561027  0.86892478  0.32036745     0.03580
C770        C  0.00261680  0.85198015  0.30631064    -0.12570
C771        C  0.97422965  0.86839775  0.28941780     0.01080
C772        C  0.00656917  0.90110839  0.29545250    -0.11100
C773        C  0.07190635  0.91631755  0.29019181     0.03570
C774        C  0.10209265  0.90078121  0.30738099    -0.10520
H775        H  0.97777532  0.82650388  0.30576117     0.09170
H776        H  0.98319516  0.91381994  0.28560895     0.06700
H777        H  0.15281516  0.91271051  0.30851027     0.06540
C778        C  0.06510952  0.87160602  0.17366863     0.03580
C779        C  0.00214295  0.85399102  0.18754575    -0.12570
C780        C  0.97379237  0.86975622  0.20642515     0.01080
C781        C  0.00598881  0.90266196  0.20220032    -0.11100
C782        C  0.07135836  0.91774220  0.20703316     0.03570
C783        C  0.10149137  0.90303122  0.18771822    -0.10520
H784        H  0.97713096  0.82853712  0.18601201     0.09170
H785        H  0.98263030  0.91494858  0.21361565     0.06700
H786        H  0.15220945  0.91491415  0.18636499     0.06540
Fe787      Fe  0.14748248  0.76209528  0.50121663     1.65780
Fe788      Fe  0.28548087  0.83210982  0.50083681     1.73250
Fe789      Fe  0.28749843  0.76311645  0.49921090     1.54410
O790        O  0.23528496  0.73270539  0.04931126    -0.81220
O791        O  0.35278819  0.83656753  0.45719500    -0.79530
O792        O  0.14204345  0.72977718  0.04736172    -0.83730
O793        O  0.14132697  0.73291858  0.44991952    -0.78590
O794        O  0.35196328  0.79221553  0.04556050    -0.80360
O795        O  0.23485031  0.83472365  0.44831046    -0.83100
C796        C  0.17583653  0.72209686  0.43732284     0.97660
C797        C  0.17907497  0.72111082  0.06235201     1.05100
O798        O  0.24004714  0.78570943  0.00045993    -1.12090
O799        O  0.22581370  0.83564290  0.04447017    -0.74520
O800        O  0.14141928  0.78816855  0.05261097    -0.78010
O801        O  0.22972536  0.73108162  0.45325536    -0.78690
C802        C  0.17359113  0.81713151  0.06223834     0.96570
O803        O  0.14107573  0.79143445  0.45502196    -0.76650
O804        O  0.34055909  0.83408262  0.05340750    -0.81850
C805        C  0.36999521  0.81910457  0.43901051     0.99190
C806        C  0.36562321  0.81789104  0.06431125     1.05110
O807        O  0.34532060  0.79009052  0.44821590    -0.77490
C808        C  0.17799048  0.81773479  0.43684371     1.03410
C809        C  0.58628306  0.87357762  0.32385958     0.03580
C810        C  0.61576697  0.85641915  0.31169446    -0.12570
C811        C  0.67598261  0.87243707  0.29305122     0.01080
C812        C  0.71009797  0.90517516  0.29817866    -0.11100
C813        C  0.67577562  0.92067171  0.29361101     0.03570
C814        C  0.61492846  0.90548985  0.31089146    -0.10520
H815        H  0.59143457  0.83103012  0.31407254     0.09170
H816        H  0.75842492  0.91750524  0.28721474     0.06700
H817        H  0.58814461  0.91745603  0.31072108     0.06540
C818        C  0.58548669  0.87323562  0.17816679     0.03580
C819        C  0.61117271  0.90382737  0.19576455    -0.12570
C820        C  0.67308081  0.91972855  0.21115472     0.01080
C821        C  0.70894163  0.90527075  0.20470410    -0.11100
C822        C  0.67638761  0.87246128  0.20914123     0.03570
C823        C  0.61652367  0.85639113  0.18977086    -0.10520
H824        H  0.58203132  0.91421477  0.20067234     0.09170
H825        H  0.75752332  0.91793842  0.21502483     0.06700
H826        H  0.59402305  0.83114917  0.18693973     0.06540
C827        C  0.12664797  0.96727456  0.24965467     0.01020
C828        C  0.09704909  0.93561652  0.24899832     0.01010
C829        C  0.52316334  0.87708216  0.38388510    -0.11820
C830        C  0.52677458  0.85922715  0.34937249     0.05190
C831        C  0.47599762  0.82828895  0.34258722    -0.07100
C832        C  0.42533316  0.81558700  0.37236402    -0.07850
C833        C  0.42240820  0.83358953  0.40703429    -0.02400
C834        C  0.47153552  0.86499916  0.41194060     0.04420
N835        N  0.47144608  0.88466510  0.44646743     0.66920
H836        H  0.56161524  0.90071533  0.38981217     0.15820
H837        H  0.38698359  0.79175847  0.36770386     0.15530
N838        N  0.47354845  0.81005674  0.30502640     0.74630
O839        O  0.51288931  0.89394264  0.47606797    -0.38820
O840        O  0.43988331  0.89824124  0.44184514    -0.38770
O841        O  0.44679652  0.78045662  0.30788440    -0.39470
O842        O  0.49108340  0.82300389  0.26768582    -0.39540
C843        C  0.48678369  0.82589386  0.14960447    -0.11820
C844        C  0.52565763  0.85888089  0.15179039     0.05190
C845        C  0.50753052  0.87769554  0.12693958    -0.07100
C846        C  0.45232644  0.86342880  0.10210827    -0.07850
C847        C  0.41587093  0.83068402  0.09821034    -0.02400
C848        C  0.43324324  0.81165054  0.12264594     0.04420
N849        N  0.39745880  0.77791257  0.12063984     0.66920
H850        H  0.49712328  0.81060192  0.16902206     0.15820
H851        H  0.44078260  0.87838205  0.08265446     0.15530
N852        N  0.54650553  0.91120868  0.12325826     0.74630
O853        O  0.42513551  0.76223144  0.11884879    -0.38820
O854        O  0.33868397  0.76361222  0.12546560    -0.38770
O855        O  0.60100755  0.92298234  0.10737352    -0.39470
O856        O  0.52309340  0.92860179  0.12890200    -0.39540
C857        C  0.12800540  0.85076248  0.07398664    -0.11820
C858        C  0.14747162  0.83092041  0.09249201     0.05190
C859        C  0.14206497  0.82530181  0.13840609    -0.07100
C860        C  0.11295293  0.83799040  0.16425981    -0.07850
C861        C  0.09258005  0.85742279  0.14543615    -0.02400
C862        C  0.10100158  0.86433700  0.09982025     0.04420
N863        N  0.08269170  0.88498106  0.07914380     0.66920
H864        H  0.13316262  0.85535833  0.03883961     0.15820
H865        H  0.10848639  0.83385096  0.19949263     0.15530
N866        N  0.16953478  0.80887077  0.15949885     0.74630
O867        O  0.11192100  0.90100636  0.04569506    -0.38820
O868        O  0.03447576  0.88546280  0.09173530    -0.38770
O869        O  0.22175887  0.81309543  0.14640555    -0.39470
O870        O  0.14718997  0.79431329  0.19530427    -0.39540
C871        C  0.14819018  0.85446471  0.33462732    -0.11820
C872        C  0.09263563  0.85352173  0.34746742     0.05190
C873        C  0.06548958  0.84003213  0.38844142    -0.07100
C874        C  0.09469316  0.82857558  0.41614606    -0.07850
C875        C  0.15092927  0.83000315  0.40415147    -0.02400
C876        C  0.17784130  0.84273303  0.36234713     0.04420
N877        N  0.23263236  0.84266737  0.34634093     0.66920
H878        H  0.16888760  0.86466855  0.30299974     0.15820
H879        H  0.07370594  0.81901471  0.44798291     0.15530
N880        N  0.01021666  0.83957414  0.40368737     0.74630
O881        O  0.23640815  0.83747247  0.30612117    -0.38820
O882        O  0.28070601  0.85221704  0.37016454    -0.38770
O883        O  0.95697158  0.81719227  0.39292897    -0.39470
O884        O  0.01439105  0.85771299  0.43435920    -0.39540
C885        C  0.33653227  0.57400552  0.16149408    -0.11820
C886        C  0.28129310  0.54722652  0.14741239     0.05190
C887        C  0.28013921  0.53380677  0.10617063    -0.07100
C888        C  0.33459093  0.54701736  0.08055952    -0.07850
C889        C  0.38980344  0.57391037  0.09416965    -0.02400
C890        C  0.39131628  0.58745092  0.13549280     0.04420
N891        N  0.44806843  0.61370282  0.15228377     0.66920
H892        H  0.33736326  0.58386749  0.19343619     0.15820
H893        H  0.33292210  0.53704959  0.04852109     0.15530
N894        N  0.22350599  0.50773956  0.08884960     0.74630
O895        O  0.44532790  0.63246239  0.17913813    -0.38820
O896        O  0.50057178  0.61606884  0.14471759    -0.38770
O897        O  0.17168447  0.50680059  0.09298036    -0.39470
O898        O  0.22630249  0.48774742  0.06455379    -0.39540
C899        C  0.63083722  0.72358906  0.10300899    -0.11820
C900        C  0.66411023  0.70786950  0.09500847     0.05190
C901        C  0.72126730  0.71805184  0.11761959    -0.07100
C902        C  0.74265359  0.74297206  0.14757302    -0.07850
C903        C  0.71220927  0.76059119  0.15278344    -0.02400
C904        C  0.65480172  0.75015944  0.12980649     0.04420
N905        N  0.62172322  0.76717010  0.13024543     0.66920
H906        H  0.58712962  0.71653451  0.08597434     0.15820
H907        H  0.78519632  0.74902572  0.16520637     0.15530
N908        N  0.76066487  0.70506306  0.10869073     0.74630
O909        O  0.64628734  0.79421136  0.11295261    -0.38820
O910        O  0.56421742  0.75304645  0.14011943    -0.38770
O911        O  0.78704775  0.70995685  0.07158273    -0.39470
O912        O  0.78073457  0.69571632  0.14021243    -0.39540
C913        C  0.68495937  0.76381324  0.38968771    -0.11820
C914        C  0.71278348  0.76255858  0.35007832     0.05190
C915        C  0.71133015  0.73433008  0.33858076    -0.07100
C916        C  0.68310213  0.70843545  0.36774315    -0.07850
C917        C  0.65452065  0.70978894  0.40695428    -0.02400
C918        C  0.65571561  0.73790245  0.41813156     0.04420
N919        N  0.63111951  0.74132904  0.45929446     0.66920
H920        H  0.68669619  0.78549482  0.39893311     0.15820
H921        H  0.68238990  0.68684702  0.35951899     0.15530
N922        N  0.73609120  0.73113297  0.29733957     0.74630
O923        O  0.66097530  0.76650069  0.48084404    -0.38820
O924        O  0.57603593  0.72145494  0.47101805    -0.38770
O925        O  0.75820077  0.71297614  0.29440181    -0.39470
O926        O  0.72933933  0.74344873  0.26268856    -0.39540
C927        C  0.38910422  0.55655751  0.36978439    -0.11820
C928        C  0.38841017  0.57304513  0.40720920     0.05190
C929        C  0.33647752  0.57716911  0.41428589    -0.07100
C930        C  0.28642433  0.56444468  0.38487268    -0.07850
C931        C  0.28645147  0.54773262  0.34766582    -0.02400
C932        C  0.33929047  0.54438123  0.33927573     0.04420
N933        N  0.34437070  0.52999475  0.29957957     0.66920
H934        H  0.42949000  0.55395197  0.36366000     0.15820
H935        H  0.24599908  0.56683692  0.39206515     0.15530
N936        N  0.33195367  0.59264596  0.45262789     0.74630
O937        O  0.32367908  0.53411409  0.26358299    -0.38820
O938        O  0.37590779  0.51622644  0.29931516    -0.38770
O939        O  0.35054678  0.62168406  0.45099802    -0.39470
O940        O  0.29953309  0.57648750  0.48499862    -0.39540
C941        C  0.09129134  0.66630032  0.15797439    -0.11820
C942        C  0.09492561  0.63969665  0.14634163     0.05190
C943        C  0.12830883  0.64063368  0.10795251    -0.07100
C944        C  0.15883602  0.66846138  0.08313852    -0.07850
C945        C  0.15428181  0.69482933  0.09424594    -0.02400
C946        C  0.12035593  0.69389066  0.13225532     0.04420
N947        N  0.11690929  0.72090954  0.14594562     0.66920
H948        H  0.06673807  0.66577051  0.18775996     0.15820
H949        H  0.18301798  0.66888538  0.05317235     0.15530
N950        N  0.12846785  0.61313003  0.09214620     0.74630
O951        O  0.07192480  0.71762759  0.16953846    -0.38820
O952        O  0.16217042  0.74822742  0.13866647    -0.38770
O953        O  0.07876318  0.58663959  0.09287508    -0.39470
O954        O  0.17554355  0.61594914  0.07173105    -0.39540
C955        C  0.15552724  0.66962609  0.41694761    -0.11820
C956        C  0.15117348  0.69610081  0.40525773     0.05190
C957        C  0.12059403  0.69590234  0.36561774    -0.07100
C958        C  0.09393885  0.66863903  0.33934066    -0.07850
C959        C  0.09743733  0.64193280  0.35168872    -0.02400
C960        C  0.12800685  0.64238130  0.39136855     0.04420
N961        N  0.12815172  0.61486118  0.40770412     0.66920
H962        H  0.17756475  0.66950250  0.44782495     0.15820
H963        H  0.07116124  0.66836641  0.30867431     0.15770
N964        N  0.11782087  0.72311256  0.35090238     0.74630
O965        O  0.17467109  0.61771982  0.42909856    -0.38820
O966        O  0.07867491  0.58829577  0.40661671    -0.38770
O967        O  0.16141494  0.75050854  0.36000584    -0.39470
O968        O  0.07522072  0.71998819  0.32473324    -0.39540
C969        C  0.71489664  0.57523742  0.08193881    -0.11820
C970        C  0.65747442  0.57277116  0.09320631     0.05190
C971        C  0.62978403  0.55930164  0.13436489    -0.07100
C972        C  0.66005431  0.54843078  0.16280826    -0.07850
C973        C  0.71701390  0.55054505  0.15083938    -0.02400
C974        C  0.74466460  0.56433027  0.11006222     0.04420
N975        N  0.80097957  0.56559885  0.09535875     0.66920
H976        H  0.73653784  0.58525088  0.05043380     0.15820
H977        H  0.63853764  0.53783046  0.19409092     0.15530
N978        N  0.57248426  0.55730056  0.14846434     0.74630
O979        O  0.79905242  0.54959535  0.06246157    -0.38820
O980        O  0.85340010  0.58724717  0.10885207    -0.38770
O981        O  0.52194301  0.53935389  0.12864619    -0.39470
O982        O  0.57014408  0.56805523  0.18559129    -0.39540
C983        C  0.68130970  0.58825807  0.36445658    -0.11820
C984        C  0.66006996  0.57429903  0.40603705     0.05190
C985        C  0.66543145  0.54800563  0.41805923    -0.07100
C986        C  0.69386990  0.53704910  0.38926240    -0.07850
C987        C  0.71547409  0.55086829  0.34775660    -0.02400
C988        C  0.70776794  0.57647389  0.33431018     0.04420
N989        N  0.72274689  0.58975137  0.29041751     0.66920
H990        H  0.67634450  0.60822659  0.35527426     0.15820
H991        H  0.69901945  0.51727868  0.39945149     0.15530
N992        N  0.64443727  0.53279777  0.46004080     0.74630
O993        O  0.69617025  0.60400465  0.27506394    -0.38820
O994        O  0.76258482  0.58783305  0.26677864    -0.38770
O995        O  0.58653250  0.51483687  0.46672484    -0.39470
O996        O  0.68316639  0.53139164  0.48583007    -0.39540
C997        C  0.71641345  0.84279820  0.75222497     0.01020
C998        C  0.68770643  0.85992490  0.75142206     0.01010
C999        C  0.87357451  0.84227240  0.74814736     0.01020
C1000       C  0.93664896  0.85685464  0.74792562     0.01010
C1001       C  0.87364394  0.54913262  0.75212673     0.01020
C1002       C  0.93658302  0.56372612  0.75140150     0.01010
C1003       C  0.74464392  0.53680976  0.82086832     0.03580
C1004       C  0.70845493  0.50532740  0.80702937    -0.12570
C1005       C  0.73861188  0.48951204  0.79169341     0.01080
C1006       C  0.80358001  0.50407061  0.79844901    -0.11100
C1007       C  0.83726285  0.53695121  0.79408469     0.03570
C1008       C  0.80950043  0.55327871  0.81183845    -0.10520
H1009       H  0.65777631  0.49398793  0.80598846     0.09170
H1010       H  0.82673165  0.49136112  0.78840709     0.06700
H1011       H  0.83684169  0.57857709  0.81555823     0.06540
C1012       C  0.74446110  0.53555328  0.67824693     0.03580
C1013       C  0.80678433  0.55299831  0.69345650    -0.12570
C1014       C  0.83580018  0.53704874  0.71088676     0.01080
C1015       C  0.80490954  0.50437987  0.70484027    -0.11100
C1016       C  0.73940425  0.48862505  0.70892161     0.03570
C1017       C  0.70875743  0.50355842  0.69057778    -0.10520
H1018       H  0.83056201  0.57844985  0.69439004     0.09170
H1019       H  0.82871479  0.49210118  0.71576871     0.06700
H1020       H  0.65806056  0.49111212  0.68844913     0.06540
C1021       C  0.71440200  0.97037054  0.75079591     0.01020
C1022       C  0.68667568  0.93883733  0.75182901     0.01010
C1023       C  0.06749334  0.61324572  0.82416606     0.03580
C1024       C  0.00446050  0.59984554  0.81063742    -0.12570
C1025       C  0.97401251  0.56949273  0.79272886     0.01080
C1026       C  0.00376392  0.55173814  0.79803145    -0.11100
C1027       C  0.06904022  0.56829828  0.79242581     0.03570
C1028       C  0.10155392  0.59877798  0.81007878    -0.10520
H1029       H  0.98065183  0.61326596  0.81186592     0.09170
H1030       H  0.97833243  0.52733387  0.78810036     0.06700
H1031       H  0.15234429  0.61169770  0.81059561     0.06540
C1032       C  0.06435567  0.61110809  0.67439781     0.03580
C1033       C  0.00185811  0.59827042  0.68917645    -0.12570
C1034       C  0.97199459  0.56843790  0.70934713     0.01080
C1035       C  0.00131900  0.55048874  0.70501282    -0.11100
C1036       C  0.06675118  0.56719094  0.70918918     0.03570
C1037       C  0.09870446  0.59700210  0.68937996    -0.10520
H1038       H  0.97827364  0.61178962  0.68734799     0.09170
H1039       H  0.97631548  0.52638644  0.71669985     0.06700
H1040       H  0.14948488  0.60987874  0.68817813     0.06540
C1041       C  0.09260138  0.56164924  0.75071158     0.01020
C1042       C  0.12473645  0.54621571  0.75036447     0.01010
C1043       C  0.22786886  0.53221627  0.82142139     0.03580
C1044       C  0.19891906  0.54949045  0.80835526    -0.12570
C1045       C  0.13780494  0.53364574  0.79154546     0.01080
C1046       C  0.10397524  0.50080667  0.79681564    -0.11100
C1047       C  0.13829828  0.48533249  0.79159120     0.03570
C1048       C  0.19899225  0.50018215  0.80946502    -0.10520
H1049       H  0.22529342  0.57498247  0.80837934     0.09170
H1050       H  0.05535120  0.48848017  0.78658537     0.06700
H1051       H  0.22432194  0.48754036  0.81145481     0.06540
C1052       C  0.74425517  0.79190764  0.82342049     0.03580
C1053       C  0.71067686  0.80718911  0.81223048    -0.12570
C1054       C  0.74236158  0.83738495  0.79372018     0.01080
C1055       C  0.80799239  0.85376955  0.79668669    -0.11100
C1056       C  0.83699503  0.83582577  0.79017862     0.03570
C1057       C  0.80685569  0.80526921  0.80840931    -0.10520
H1058       H  0.65994672  0.79461370  0.81435035     0.09170
H1059       H  0.83275584  0.87799769  0.78543795     0.06700
H1060       H  0.83035015  0.79168859  0.80860259     0.06540
Fe1061     Fe  0.66136829  0.64153657  0.49803016     1.65780
Fe1062     Fe  0.52408228  0.64161615  0.00102742     1.73250
Fe1063     Fe  0.52293008  0.57251130  0.99975454     1.54410
O1064       O  0.58519549  0.56912651  0.95826130    -0.81220
O1065       O  0.47249021  0.61716190  0.55581659    -0.79530
O1066       O  0.66373413  0.61733665  0.94341848    -0.83730
O1067       O  0.66778510  0.60984102  0.53961763    -0.78590
O1068       O  0.47029150  0.57065937  0.94549159    -0.80360
O1069       O  0.58782738  0.67592740  0.54243510    -0.83100
C1070       C  0.63006814  0.58524327  0.56108914     0.97660
C1071       C  0.63460161  0.58783270  0.93732337     1.05100
O1072       O  0.56950894  0.61859915  0.99949487    -1.12090
O1073       O  0.57129997  0.66838852  0.94661630    -0.74520
O1074       O  0.66799495  0.67662019  0.95638507    -0.78010
O1075       O  0.57141900  0.57053951  0.55412276    -0.78690
C1076       C  0.62953405  0.68307440  0.93801695     0.96570
O1077       O  0.66758799  0.66777268  0.55267126    -0.76650
O1078       O  0.45410027  0.61036572  0.95972828    -0.81850
C1079       C  0.44260067  0.58767556  0.56264498     0.99190
C1080       C  0.44103832  0.58545910  0.93901579     1.05110
O1081       O  0.45363792  0.56886868  0.54139295    -0.77490
C1082       C  0.63851212  0.68219774  0.56171374     1.03410
C1083       C  0.74329009  0.79082079  0.67854263     0.03580
C1084       C  0.70834067  0.80350279  0.69738718    -0.12570
C1085       C  0.73894116  0.83494823  0.71137239     0.01080
C1086       C  0.80343787  0.85317473  0.70312214    -0.11100
C1087       C  0.83683151  0.83717084  0.70644370     0.03570
C1088       C  0.80873124  0.80724306  0.68748012    -0.10520
H1089       H  0.65887737  0.78860831  0.70431150     0.09170
H1090       H  0.82715028  0.87760805  0.71300620     0.06700
H1091       H  0.83749026  0.79667931  0.68339640     0.06540
C1092       C  0.22488806  0.53289320  0.67569774     0.03580
C1093       C  0.19697494  0.55027369  0.68989161    -0.12570
C1094       C  0.13668918  0.53414356  0.70855025     0.01080
C1095       C  0.10288176  0.50135614  0.70364205    -0.11100
C1096       C  0.13780228  0.48616838  0.70828359     0.03570
C1097       C  0.19789535  0.50124017  0.68953122    -0.10520
H1098       H  0.22277836  0.57574753  0.68865408     0.09170
H1099       H  0.05460375  0.48888287  0.71468390     0.06700
H1100       H  0.22474686  0.48934466  0.68818278     0.06540
C1101       C  0.06560301  0.86892310  0.82035372     0.03580
C1102       C  0.00261146  0.85197696  0.80629438    -0.12570
C1103       C  0.97422224  0.86839397  0.78940228     0.01080
C1104       C  0.00656017  0.90110457  0.79543680    -0.11100
C1105       C  0.07189732  0.91631388  0.79017701     0.03570
C1106       C  0.10208424  0.90077918  0.80736854    -0.10520
H1107       H  0.97777392  0.82650078  0.80574211     0.09170
H1108       H  0.98318590  0.91381582  0.78559236     0.06700
H1109       H  0.15280692  0.91270825  0.80849756     0.06540
C1110       C  0.06510083  0.87159999  0.67365384     0.03580
C1111       C  0.00213446  0.85398620  0.68753179    -0.12570
C1112       C  0.97378512  0.86975231  0.70641015     0.01080
C1113       C  0.00598309  0.90265818  0.70218449    -0.11100
C1114       C  0.07135274  0.91773825  0.70701751     0.03570
C1115       C  0.10148415  0.90302583  0.68770263    -0.10520
H1116       H  0.97712150  0.82853223  0.68599982     0.09170
H1117       H  0.98262528  0.91494532  0.71359908     0.06700
H1118       H  0.15220213  0.91490788  0.68634985     0.06540
Fe1119     Fe  0.14750552  0.76211600  0.00118444     1.65780
Fe1120     Fe  0.28551493  0.83214343  0.00085512     1.73250
Fe1121     Fe  0.28752956  0.76314107  0.99920955     1.54410
O1122       O  0.23531867  0.73271150  0.54935819    -0.81220
O1123       O  0.35275625  0.83660210  0.95714755    -0.79530
O1124       O  0.14202619  0.72972305  0.54732941    -0.83730
O1125       O  0.14135626  0.73290348  0.94994399    -0.78590
O1126       O  0.35198756  0.79222364  0.54551523    -0.80360
O1127       O  0.23482493  0.83478520  0.94839109    -0.83100
C1128       C  0.17590423  0.72211519  0.93730907     0.97660
C1129       C  0.17908395  0.72108635  0.56235794     1.05100
O1130       O  0.24001735  0.78568144  0.50046524    -1.12090
O1131       O  0.22571403  0.83562162  0.54438358    -0.74520
O1132       O  0.14145707  0.78812091  0.55270606    -0.78010
O1133       O  0.22982477  0.73113213  0.95320382    -0.78690
C1134       C  0.17356324  0.81710329  0.56223898     0.96570
O1135       O  0.14113097  0.79141857  0.95491436    -0.76650
O1136       O  0.34045322  0.83404787  0.55344149    -0.81850
C1137       C  0.37001875  0.81914683  0.93900644     0.99190
C1138       C  0.36558471  0.81787888  0.56430499     1.05110
O1139       O  0.34541920  0.79014408  0.94826284    -0.77490
C1140       C  0.17802461  0.81775337  0.93681510     1.03410
C1141       C  0.58628743  0.87358961  0.82384724     0.03580
C1142       C  0.61576042  0.85642538  0.81168358    -0.12570
C1143       C  0.67597440  0.87243782  0.79303623     0.01080
C1144       C  0.71009782  0.90517610  0.79815728    -0.11100
C1145       C  0.67578152  0.92067546  0.79358766     0.03570
C1146       C  0.61493836  0.90550015  0.81087239    -0.10520
H1147       H  0.59142122  0.83103646  0.81406626     0.09170
H1148       H  0.75842326  0.91750246  0.78718987     0.06700
H1149       H  0.58816104  0.91746975  0.81070014     0.06540
C1150       C  0.58546796  0.87323339  0.67815157     0.03580
C1151       C  0.61116527  0.90382784  0.69574459    -0.12570
C1152       C  0.67307702  0.91972804  0.71113108     0.01080
C1153       C  0.70892930  0.90526544  0.70468209    -0.11100
C1154       C  0.67636850  0.87245633  0.70912625     0.03570
C1155       C  0.61650168  0.85638743  0.68975992    -0.10520
H1156       H  0.58202835  0.91421691  0.70065814     0.09170
H1157       H  0.75751248  0.91793137  0.71499964     0.06700
H1158       H  0.59399749  0.83114504  0.68693762     0.06540
C1159       C  0.12664958  0.96727036  0.74964488     0.01020
C1160       C  0.09704283  0.93561224  0.74898412     0.01010
C1161       C  0.52318326  0.87710882  0.88387190    -0.11820
C1162       C  0.52678268  0.85924750  0.84936268     0.05190
C1163       C  0.47599536  0.82831204  0.84258060    -0.07100
C1164       C  0.42533147  0.81561864  0.87235689    -0.07850
C1165       C  0.42241821  0.83362757  0.90702239    -0.02400
C1166       C  0.47155521  0.86503417  0.91192680     0.04420
N1167       N  0.47147882  0.88470249  0.94645535     0.66920
H1168       H  0.56164441  0.90073994  0.88979656     0.15820
H1169       H  0.38697461  0.79179125  0.86770199     0.15530
N1170       N  0.47353716  0.81007377  0.80502478     0.74630
O1171       O  0.51295236  0.89399490  0.97603568    -0.38820
O1172       O  0.43989379  0.89826802  0.94184831    -0.38770
O1173       O  0.44677640  0.78047369  0.80788992    -0.39470
O1174       O  0.49107375  0.82301601  0.76768144    -0.39540
C1175       C  0.48677457  0.82588801  0.64957708    -0.11820
C1176       C  0.52562973  0.85887600  0.65177977     0.05190
C1177       C  0.50747607  0.87768768  0.62694607    -0.07100
C1178       C  0.45226734  0.86341755  0.60211782    -0.07850
C1179       C  0.41583479  0.83067348  0.59820301    -0.02400
C1180       C  0.43323388  0.81164260  0.62261866     0.04420
N1181       N  0.39747619  0.77790465  0.62059212     0.66920
H1182       H  0.49712854  0.81059540  0.66897973     0.15820
H1183       H  0.44070267  0.87836852  0.58267741     0.15530
N1184       N  0.54642891  0.91120236  0.62327630     0.74630
O1185       O  0.42517724  0.76223565  0.61878827    -0.38820
O1186       O  0.33869957  0.76359081  0.62541041    -0.38770
O1187       O  0.60092243  0.92298796  0.60737249    -0.39470
O1188       O  0.52299878  0.92858509  0.62894511    -0.39540
C1189       C  0.12800485  0.85074945  0.57398043    -0.11820
C1190       C  0.14745009  0.83089941  0.59248856     0.05190
C1191       C  0.14202452  0.82527743  0.63840203    -0.07100
C1192       C  0.11292103  0.83797268  0.66425163    -0.07850
C1193       C  0.09256964  0.85741309  0.64542505    -0.02400
C1194       C  0.10100259  0.86432750  0.59980929     0.04420
N1195       N  0.08269957  0.88497253  0.57912712     0.66920
H1196       H  0.13317070  0.85534598  0.53883372     0.15820
H1197       H  0.10844476  0.83383179  0.69948408     0.15530
N1198       N  0.16947955  0.80884142  0.65950001     0.74630
O1199       O  0.11192566  0.90099086  0.54567287    -0.38820
O1200       O  0.03448735  0.88545880  0.59171622    -0.38770
O1201       O  0.22171438  0.81307112  0.64642349    -0.39470
O1202       O  0.14711300  0.79427746  0.69529806    -0.39540
C1203       C  0.14814515  0.85443425  0.83456670    -0.11820
C1204       C  0.09263636  0.85352230  0.84744729     0.05190
C1205       C  0.06555569  0.84007148  0.88844924    -0.07100
C1206       C  0.09479048  0.82862875  0.91614547    -0.07850
C1207       C  0.15097582  0.83001679  0.90410845    -0.02400
C1208       C  0.17781887  0.84269692  0.86226128     0.04420
N1209       N  0.23252535  0.84256970  0.84617141     0.66920
H1210       H  0.16877676  0.86461283  0.80291465     0.15820
H1211       H  0.07385737  0.81909975  0.94800653     0.15530
N1212       N  0.01031511  0.83963422  0.90372637     0.74630
O1213       O  0.23646754  0.83766742  0.80585794    -0.38820
O1214       O  0.28033841  0.85164918  0.87013184    -0.38770
O1215       O  0.95704917  0.81729807  0.89290807    -0.39470
O1216       O  0.01451854  0.85772197  0.93448155    -0.39540
C1217       C  0.33653073  0.57400847  0.66149692    -0.11820
C1218       C  0.28128755  0.54723233  0.64741387     0.05190
C1219       C  0.28012851  0.53381458  0.60616936    -0.07100
C1220       C  0.33458078  0.54702176  0.58055904    -0.07850
C1221       C  0.38979825  0.57391092  0.59417147    -0.02400
C1222       C  0.39131445  0.58745169  0.63549526     0.04420
N1223       N  0.44806944  0.61370167  0.65228643     0.66920
H1224       H  0.33736546  0.58386942  0.69344054     0.15820
H1225       H  0.33290893  0.53705484  0.54851943     0.15530
N1226       N  0.22348954  0.50775289  0.58884521     0.74630
O1227       O  0.44533355  0.63246260  0.67914068    -0.38820
O1228       O  0.50057047  0.61606532  0.64471913    -0.38770
O1229       O  0.17167442  0.50682040  0.59297821    -0.39470
O1230       O  0.22627548  0.48775985  0.56454492    -0.39540
C1231       C  0.63082992  0.72358568  0.60300468    -0.11820
C1232       C  0.66410214  0.70786533  0.59500729     0.05190
C1233       C  0.72125749  0.71804715  0.61762053    -0.07100
C1234       C  0.74264381  0.74296848  0.64757194    -0.07850
C1235       C  0.71220104  0.76058863  0.65277806    -0.02400
C1236       C  0.65479450  0.75015685  0.62980009     0.04420
N1237       N  0.62171767  0.76716839  0.63023571     0.66920
H1238       H  0.58712313  0.71653127  0.58596877     0.15820
H1239       H  0.78518587  0.74902244  0.66520746     0.15530
N1240       N  0.76065301  0.70505657  0.60869583     0.74630
O1241       O  0.64628411  0.79420936  0.61294171    -0.38820
O1242       O  0.56421160  0.75304586  0.64010881    -0.38770
O1243       O  0.78703903  0.70994903  0.57158924    -0.39470
O1244       O  0.78071795  0.69570939  0.64021995    -0.39540
C1245       C  0.68496049  0.76381584  0.88968112    -0.11820
C1246       C  0.71278414  0.76256092  0.85007162     0.05190
C1247       C  0.71133503  0.73433291  0.83857670    -0.07100
C1248       C  0.68311107  0.70843923  0.86774129    -0.07850
C1249       C  0.65452944  0.70979286  0.90695236    -0.02400
C1250       C  0.65572100  0.73790597  0.91812720     0.04420
N1251       N  0.63112591  0.74133331  0.95928999     0.66920
H1252       H  0.68669440  0.78549699  0.89892499     0.15820
H1253       H  0.68240152  0.68685124  0.85951861     0.15530
N1254       N  0.73609592  0.73113513  0.79733582     0.74630
O1255       O  0.66098299  0.76650514  0.98083901    -0.38820
O1256       O  0.57604172  0.72146008  0.97101350    -0.38770
O1257       O  0.75820905  0.71297973  0.79439965    -0.39470
O1258       O  0.72934053  0.74344868  0.76268376    -0.39540
C1259       C  0.38911603  0.55656245  0.86978203    -0.11820
C1260       C  0.38841691  0.57304560  0.90721064     0.05190
C1261       C  0.33647149  0.57715740  0.91429769    -0.07100
C1262       C  0.28641211  0.56442610  0.88488978    -0.07850
C1263       C  0.28644732  0.54772146  0.84767640    -0.02400
C1264       C  0.33929688  0.54438081  0.83927763     0.04420
N1265       N  0.34438215  0.53000010  0.79957721     0.66920
H1266       H  0.42950978  0.55396479  0.86365129     0.15820
H1267       H  0.24597875  0.56680993  0.89208896     0.15530
N1268       N  0.33194277  0.59262945  0.95264376     0.74630
O1269       O  0.32368645  0.53412068  0.76358333    -0.38820
O1270       O  0.37592799  0.51623644  0.79930664    -0.38770
O1271       O  0.35058953  0.62167376  0.95103151    -0.39470
O1272       O  0.29945500  0.57646601  0.98498884    -0.39540
C1273       C  0.09130194  0.66628846  0.65798545    -0.11820
C1274       C  0.09493045  0.63968254  0.64635871     0.05190
C1275       C  0.12830832  0.64061301  0.60796996    -0.07100
C1276       C  0.15884359  0.66843888  0.58315261    -0.07850
C1277       C  0.15429598  0.69480906  0.59425544    -0.02400
C1278       C  0.12036755  0.69387522  0.63226068     0.04420
N1279       N  0.11691210  0.72089433  0.64593778     0.66920
H1280       H  0.06674924  0.66576263  0.68776934     0.15820
H1281       H  0.18302384  0.66885968  0.55318720     0.15530
N1282       N  0.12845128  0.61310446  0.59216712     0.74630
O1283       O  0.07192736  0.71761365  0.66952923    -0.38820
O1284       O  0.16216114  0.74821269  0.63864171    -0.38770
O1285       O  0.07874049  0.58661665  0.59290354    -0.39470
O1286       O  0.17551786  0.61591633  0.57174752    -0.39540
C1287       C  0.15561223  0.66964739  0.91693827    -0.11820
C1288       C  0.15124471  0.69611766  0.90524753     0.05190
C1289       C  0.12062976  0.69590842  0.86562024    -0.07100
C1290       C  0.09395676  0.66863894  0.83935509    -0.07850
C1291       C  0.09746436  0.64193542  0.85170532    -0.02400
C1292       C  0.12806763  0.64239500  0.89137419     0.04420
N1293       N  0.12821959  0.61487833  0.90771691     0.66920
H1294       H  0.17767414  0.66953250  0.94780824     0.15820
H1295       H  0.07115476  0.66835879  0.80869715     0.15770
N1296       N  0.11783279  0.72311300  0.85090758     0.74630
O1297       O  0.17475116  0.61774136  0.92909963    -0.38820
O1298       O  0.07873897  0.58831375  0.90665131    -0.38770
O1299       O  0.16141126  0.75051232  0.86001345    -0.39470
O1300       O  0.07522101  0.71998102  0.82474426    -0.39540
C1301       C  0.71489653  0.57523515  0.58192895    -0.11820
C1302       C  0.65747662  0.57276949  0.59320219     0.05190
C1303       C  0.62979918  0.55930624  0.63436605    -0.07100
C1304       C  0.66007933  0.54844025  0.66280832    -0.07850
C1305       C  0.71703698  0.55055411  0.65083423    -0.02400
C1306       C  0.74467711  0.56433442  0.61005193     0.04420
N1307       N  0.80099381  0.56560590  0.59534308     0.66920
H1308       H  0.73652886  0.58524573  0.55042070     0.15820
H1309       H  0.63857079  0.53784288  0.69409416     0.15530
N1310       N  0.57250288  0.55730649  0.64847168     0.74630
O1311       O  0.79909031  0.54965580  0.56238635    -0.38820
O1312       O  0.85340866  0.58722145  0.60889814    -0.38770
O1313       O  0.52195833  0.53936240  0.62865532    -0.39470
O1314       O  0.57016918  0.56806055  0.68560065    -0.39540
C1315       C  0.68131931  0.58826429  0.86445871    -0.11820
C1316       C  0.66006635  0.57429967  0.90603432     0.05190
C1317       C  0.66539374  0.54799492  0.91804490    -0.07100
C1318       C  0.69380817  0.53703048  0.88924079    -0.07850
C1319       C  0.71542586  0.55085465  0.84773931    -0.02400
C1320       C  0.70775428  0.57647353  0.83430190     0.04420
N1321       N  0.72275406  0.58976286  0.79041362     0.66920
H1322       H  0.67637820  0.60824194  0.85528927     0.15820
H1323       H  0.69893813  0.51725316  0.89942430     0.15530
N1324       N  0.64439764  0.53278591  0.96002533     0.74630
O1325       O  0.69636032  0.60412322  0.77512272    -0.38820
O1326       O  0.76236438  0.58770990  0.76669053    -0.38770
O1327       O  0.58649317  0.51482169  0.96670609    -0.39470
O1328       O  0.68312809  0.53138457  0.98581869    -0.39540
loop_ 
_geom_bond_atom_site_label_1 
_geom_bond_atom_site_label_2 
_geom_bond_distance 
_geom_bond_site_symmetry_2 
_ccdc_geom_bond_type 
C1            C2   1.346       .  D
C1           C58   1.494       .  S
C1           C89   1.491       .  S
C2          C147   1.500       .  S
C2          C158   1.506       .  S
C3            C4   1.347       .  D
C3           C60   1.503       .  S
C3           C91   1.503       .  S
C4          C107   1.497       .  S
C4          C116   1.498       .  S
C5            C6   1.344       .  D
C5           C11   1.498       .  S
C5           C18   1.496       .  S
C6           C29   1.498       .  S
C6           C38   1.499       .  S
C7            C8   1.410       .  A
C7           C12   1.410       .  A
C7          C323   1.475       .  S
C8            C9   1.402   1_545  A
C8           H13   1.084   1_545  S
C9          C689   1.494       .  S
C9           C10   1.404   1_565  A
C10          C11   1.403       .  A
C10          H14   1.083   1_545  S
C11          C12   1.402       .  A
C12          H15   1.083       .  S
C16          C17   1.410       .  A
C16          C21   1.411       .  A
C16         C309   1.478       .  S
C17          C18   1.402       .  A
C17          H22   1.083       .  S
C18          C19   1.403       .  A
C19          C20   1.403   1_545  A
C19          H23   1.083   1_545  S
C20         C689   1.495       .  S
C20          C21   1.404   1_565  A
C21          H24   1.083   1_545  S
C25          C26   1.344       .  D
C25         C673   1.494       .  S
C25         C684   1.495       .  S
C26         C149   1.491       .  S
C26         C156   1.490       .  S
C27          C28   1.411       .  A
C27          C32   1.415       .  A
C27         C295   1.483       .  S
C28          C29   1.403   1_455  A
C28          H33   1.083   1_455  S
C29          C30   1.403   1_655  A
C30          C31   1.403       .  A
C30          H34   1.082   1_455  S
C31          C45   1.500       .  S
C31          C32   1.406       .  A
C32          H35   1.084       .  S
C36          C37   1.414       .  A
C36          C41   1.411       .  A
C36         C278   1.480       .  S
C37          C38   1.405   1_455  A
C37          H42   1.083   1_455  S
C38          C39   1.402   1_655  A
C39          C40   1.402       .  A
C39          H43   1.082   1_455  S
C40          C45   1.496       .  S
C40          C41   1.400       .  A
C41          H44   1.084       .  S
C45          C46   1.346       .  D
C46          C49   1.496       .  S
C46          C98   1.497       .  S
C47          C48   1.412       .  A
C47          C52   1.414       .  A
C47         C267   1.483       .  S
C48          C49   1.400       .  A
C48          H53   1.084       .  S
C49          C50   1.404       .  A
C50          C51   1.404   1_545  A
C50          H54   1.083   1_545  S
C51         C827   1.501       .  S
C51          C52   1.404   1_565  A
C52          H55   1.082   1_545  S
C56          C57   1.410       .  A
C56          C61   1.416       .  A
C56         C250   1.484       .  S
C57          C58   1.399       .  A
C57          H62   1.084       .  S
C58          C59   1.403       .  A
C59          C60   1.403       .  A
C59          H63   1.083       .  S
C60          C61   1.409       .  A
C61          H64   1.082       .  S
Fe65         O81   2.066   1_556  S
Fe65         O71   2.066   1_556  S
Fe65        O410   2.071       .  S
Fe65        O402   2.066       .  S
Fe65        O408   1.960       .  S
Fe66         O77   2.064       .  S
Fe66         O82   2.064       .  S
Fe66        O401   2.069       .  S
Fe66        O405   2.062       .  S
Fe66         O76   1.954       .  S
Fe67         O72   2.069       .  S
Fe67         O68   2.061       .  S
Fe67        O417   2.063       .  S
Fe67        O411   2.066       .  S
Fe67         O76   1.959       .  S
O68          C75   1.267       .  A
O69        Fe398   2.069       .  S
O69          C83   1.269       .  A
O70        Fe397   2.066       .  S
O70          C75   1.269       .  A
O71          C74   1.271       .  A
O72          C84   1.271       .  A
O73        Fe398   2.062       .  S
O73          C86   1.270       .  A
C74         C306   1.480       .  S
C74          O79   1.269       .  A
C75         C320   1.474       .  S
O76        Fe397   1.960       .  S
O77          C80   1.269       .  A
O78        Fe397   2.071       .  S
O78          C80   1.269       .  A
O79        Fe399   2.066   1_554  S
C80         C253   1.472       .  S
O81          C86   1.269       .  A
O82          C84   1.270       .  A
C83         C225   1.478       .  S
C83          O85   1.268       .  A
C84         C264   1.482       .  S
O85        Fe399   2.063   1_554  S
C86         C236   1.492       .  S
C87          C88   1.417       .  A
C87          C92   1.422       .  A
C87         C239   1.509       .  S
C88          C89   1.405       .  A
C88          H93   1.082       .  S
C89          C90   1.401       .  A
C90          C91   1.400       .  A
C90          H94   1.083       .  S
C91          C92   1.401       .  A
C92          H95   1.078       .  S
C96          C97   1.411       .  A
C96         C101   1.412       .  A
C96         C222   1.478       .  S
C97          C98   1.406       .  A
C97         H102   1.083       .  S
C98          C99   1.403       .  A
C99         C100   1.402   1_545  A
C99         H103   1.083   1_545  S
C100        C827   1.498       .  S
C100        C101   1.402   1_565  A
C101        H104   1.083   1_545  S
C105        C106   1.411       .  A
C105        C110   1.413       .  A
C105        C208   1.481       .  S
C106        C107   1.402   1_455  A
C106        H111   1.083   1_455  S
C107        C108   1.404   1_655  A
C108        C109   1.404       .  A
C108        H112   1.083   1_455  S
C109        C164   1.499       .  S
C109        C110   1.406       .  A
C110        H113   1.083       .  S
C114        C115   1.410       .  A
C114        C119   1.410       .  A
C114        C197   1.473       .  S
C115        C116   1.405   1_455  A
C115        H120   1.083   1_455  S
C116        C117   1.404   1_655  A
C117        C118   1.404       .  A
C117        H121   1.083   1_455  S
C118        C164   1.500       .  S
C118        C119   1.404       .  A
C119        H122   1.084       .  S
Fe123       O139   2.068       .  S
Fe123       O129   2.078       .  S
Fe123       O468   2.080       .  S
Fe123       O460   2.066       .  S
Fe123       O466   1.974       .  S
Fe124       O127   2.051       .  S
Fe124       O131   2.066       .  S
Fe124       O467   2.055       .  S
Fe124       O472   2.064       .  S
Fe124       O466   1.974       .  S
Fe125       O143   2.068       .  S
Fe125       O137   2.055       .  S
Fe125       O462   2.069       .  S
Fe125       O458   2.063       .  S
Fe125       O466   1.979       .  S
O126       Fe457   2.063   1_554  S
O126        C133   1.269       .  A
O127        C141   1.264       .  A
O128       Fe455   2.066       .  S
O128        C133   1.269       .  A
O129        C132   1.271       .  A
O130       Fe457   2.069   1_554  S
O130        C142   1.270       .  A
O131        C144   1.269       .  A
C132        C292   1.478       .  S
C132        O137   1.267       .  A
C133        C281   1.474       .  S
O134       Fe455   1.974       .  S
O134       Fe456   1.974       .  S
O134       Fe457   1.979   1_554  S
O135       Fe456   2.055       .  S
O135        C138   1.264       .  A
O136       Fe455   2.080       .  S
O136        C138   1.269       .  A
C138        C194   1.473       .  S
O139        C144   1.271       .  A
O140       Fe456   2.064       .  S
O140        C142   1.272       .  A
C141        C169   1.481       .  S
C141        O143   1.268       .  A
C142        C183   1.487       .  S
C144        C211   1.479       .  S
C145        C146   1.415       .  A
C145        C150   1.413       .  A
C145        C166   1.487       .  S
C146        C147   1.404       .  A
C146        H151   1.082       .  S
C147        C148   1.402       .  A
C148        C149   1.402       .  A
C148        H152   1.083       .  S
C149        C150   1.400       .  A
C150        H153   1.084       .  S
C154        C155   1.414       .  A
C154        C159   1.425       .  A
C154        C180   1.507       .  S
C155        C156   1.401       .  A
C155        H160   1.082       .  S
C156        C157   1.401       .  A
C157        C158   1.400       .  A
C157        H161   1.083       .  S
C158        C159   1.407       .  A
C159        H162   1.079       .  S
C163        C164   1.347       .  D
C163        C715   1.501       .  S
C163        C764   1.498       .  S
C165        C166   1.403       .  A
C165        C170   1.393       .  A
C165        H172   1.085       .  S
C166        C167   1.419       .  A
C167        C168   1.409       .  A
C167        N174   1.438       .  S
C168        C169   1.405       .  A
C168        H173   1.084       .  S
C169        C170   1.413       .  A
C170        N171   1.432       .  S
N171        O175   1.262       .  A
N171        O176   1.262       .  A
N174        O177   1.263       .  A
N174        O178   1.263       .  A
C179        C180   1.412       .  A
C179        C184   1.406       .  A
C179        H186   1.079       .  S
C180        C181   1.425       .  A
C181        C182   1.399       .  A
C181        N188   1.434       .  S
C182        C183   1.401       .  A
C182        H187   1.084       .  S
C183        C184   1.415       .  A
C184        N185   1.437       .  S
N185        O189   1.263       .  A
N185        O190   1.262       .  A
N188        O191   1.262       .  A
N188        O192   1.263       .  A
C193        C194   1.400       .  A
C193        C198   1.401       .  A
C193        H200   1.084       .  S
C194        C195   1.413       .  A
C195        C196   1.408       .  A
C195        N202   1.437       .  S
C196        C197   1.402       .  A
C196        H201   1.083       .  S
C197        C198   1.415       .  A
C198        N199   1.442       .  S
N199        O203   1.263       .  A
N199        O204   1.262       .  A
N202        O205   1.263       .  A
N202        O206   1.263       .  A
C207        C208   1.405       .  A
C207        C212   1.411       .  A
C207        H214   1.083       .  S
C208        C209   1.408       .  A
C209        C210   1.394       .  A
C209        N216   1.431       .  S
C210        C211   1.403       .  A
C210        H215   1.084       .  S
C211        C212   1.421       .  A
C212        N213   1.440       .  S
N213        O217   1.263       .  A
N213        O218   1.261       .  A
N216        O219   1.262   1_455  A
N216        O220   1.262       .  A
C221        C222   1.405       .  A
C221        C226   1.410       .  A
C221        H228   1.083       .  S
C222        C223   1.413       .  A
C223        C224   1.398       .  A
C223        N230   1.441       .  S
C224        C225   1.403       .  A
C224        H229   1.084       .  S
C225        C226   1.416       .  A
C226        N227   1.440       .  S
N227        O231   1.263       .  A
N227        O232   1.263       .  A
N230        O233   1.263       .  A
N230        O234   1.263   1_545  A
C235        C236   1.405       .  A
C235        C240   1.398       .  A
C235        H242   1.084       .  S
C236        C237   1.414       .  A
C237        C238   1.403       .  A
C237        N244   1.434       .  S
C238        C239   1.413       .  A
C238        H243   1.078       .  S
C239        C240   1.423       .  A
C240        N241   1.433       .  S
N241        O245   1.262       .  A
N241        O246   1.263       .  A
N244        O247   1.263       .  A
N244        O248   1.262       .  A
C249        C250   1.404       .  A
C249        C254   1.398       .  A
C249        H256   1.084       .  S
C250        C251   1.417       .  A
C251        C252   1.410       .  A
C251        N258   1.439       .  S
C252        C253   1.405       .  A
C252        H257   1.084       .  S
C253        C254   1.412       .  A
C254        N255   1.439       .  S
N255        O259   1.263       .  A
N255        O260   1.262       .  A
N258        O261   1.263       .  A
N258        O262   1.262       .  A
C263        C264   1.406       .  A
C263        C268   1.410       .  A
C263        H270   1.084       .  S
C264        C265   1.412       .  A
C265        C266   1.392       .  A
C265        N272   1.430       .  S
C266        C267   1.402       .  A
C266        H271   1.085       .  S
C267        C268   1.418       .  A
C268        N269   1.439       .  S
N269        O273   1.263       .  A
N269        O274   1.263       .  A
N272        O275   1.262       .  A
N272        O276   1.262       .  A
C277        C278   1.403       .  A
C277        C282   1.406       .  A
C277        H284   1.083       .  S
C278        C279   1.416       .  A
C279        C280   1.400       .  A
C279        N286   1.440       .  S
C280        C281   1.400       .  A
C280        H285   1.084       .  S
C281        C282   1.415       .  A
C282        N283   1.438       .  S
N283        O287   1.263       .  A
N283        O288   1.261       .  A
N286        O289   1.263       .  A
N286        O290   1.263       .  A
C291        C292   1.403       .  A
C291        C296   1.398       .  A
C291        H298   1.084       .  S
C292        C293   1.416       .  A
C293        C294   1.411       .  A
C293        N300   1.442       .  S
C294        C295   1.407       .  A
C294        H299   1.083       .  S
C295        C296   1.414       .  A
C296        N297   1.440       .  S
N297        O301   1.263       .  A
N297        O302   1.263       .  A
N300        O303   1.263       .  A
N300        O304   1.263       .  A
C305        C306   1.403       .  A
C305        C310   1.394       .  A
C305        H312   1.084       .  S
C306        C307   1.416       .  A
C307        C308   1.408       .  A
C307        N314   1.434       .  S
C308        C309   1.405       .  A
C308        H313   1.083       .  S
C309        C310   1.410       .  A
C310        N311   1.432       .  S
N311        O315   1.262       .  A
N311        O316   1.262       .  A
N314        O317   1.262       .  A
N314        O318   1.262       .  A
C319        C320   1.404       .  A
C319        C324   1.411       .  A
C319        H326   1.084       .  S
C320        C321   1.410       .  A
C321        C322   1.392       .  A
C321        N328   1.433       .  S
C322        C323   1.401       .  A
C322        H327   1.085       .  S
C323        C324   1.422       .  A
C324        N325   1.445       .  S
N325        O329   1.263       .  A
N325        O330   1.261       .  A
N328        O331   1.262       .  A
N328        O332   1.262       .  A
C333        C334   1.346       .  D
C333        C390   1.494       .  S
C333        C421   1.491       .  S
C334        C479   1.500       .  S
C334        C490   1.506       .  S
C335        C336   1.347       .  D
C335        C392   1.503       .  S
C335        C423   1.503       .  S
C336        C439   1.497       .  S
C336        C448   1.498       .  S
C337        C338   1.344       .  D
C337        C343   1.498       .  S
C337        C350   1.496       .  S
C338        C361   1.498       .  S
C338        C370   1.499       .  S
C339        C340   1.410       .  A
C339        C344   1.410       .  A
C339        C655   1.475       .  S
C340        C341   1.402   1_545  A
C340        H345   1.084   1_545  S
C341       C1021   1.494       .  S
C341        C342   1.404   1_565  A
C342        C343   1.403       .  A
C342        H346   1.083   1_545  S
C343        C344   1.402       .  A
C344        H347   1.083       .  S
C348        C349   1.410       .  A
C348        C353   1.411       .  A
C348        C641   1.478       .  S
C349        C350   1.402       .  A
C349        H354   1.083       .  S
C350        C351   1.403       .  A
C351        C352   1.403   1_545  A
C351        H355   1.083   1_545  S
C352       C1021   1.495       .  S
C352        C353   1.404   1_565  A
C353        H356   1.083   1_545  S
C357        C358   1.344       .  D
C357       C1005   1.494       .  S
C357       C1016   1.495       .  S
C358        C481   1.491       .  S
C358        C488   1.490       .  S
C359        C360   1.411       .  A
C359        C364   1.415       .  A
C359        C627   1.483       .  S
C360        C361   1.403   1_455  A
C360        H365   1.083   1_455  S
C361        C362   1.403   1_655  A
C362        C363   1.403       .  A
C362        H366   1.082   1_455  S
C363        C377   1.500       .  S
C363        C364   1.406       .  A
C364        H367   1.084       .  S
C368        C369   1.414       .  A
C368        C373   1.411       .  A
C368        C610   1.480       .  S
C369        C370   1.405   1_455  A
C369        H374   1.083   1_455  S
C370        C371   1.402   1_655  A
C371        C372   1.402       .  A
C371        H375   1.082   1_455  S
C372        C377   1.495       .  S
C372        C373   1.400       .  A
C373        H376   1.084       .  S
C377        C378   1.346       .  D
C378        C381   1.496       .  S
C378        C430   1.497       .  S
C379        C380   1.412       .  A
C379        C384   1.414       .  A
C379        C599   1.483       .  S
C380        C381   1.400       .  A
C380        H385   1.084       .  S
C381        C382   1.404       .  A
C382        C383   1.404   1_545  A
C382        H386   1.083   1_545  S
C383       C1159   1.501       .  S
C383        C384   1.404   1_565  A
C384        H387   1.082   1_545  S
C388        C389   1.410       .  A
C388        C393   1.416       .  A
C388        C582   1.484       .  S
C389        C390   1.399       .  A
C389        H394   1.084       .  S
C390        C391   1.403       .  A
C391        C392   1.403       .  A
C391        H395   1.083       .  S
C392        C393   1.409       .  A
C393        H396   1.082       .  S
Fe397       O413   2.066       .  S
Fe397       O403   2.066       .  S
Fe398       O409   2.064   1_554  S
Fe398       O414   2.064   1_554  S
Fe398       O408   1.954   1_554  S
Fe399       O404   2.069       .  S
Fe399       O400   2.061       .  S
Fe399       O408   1.959       .  S
O400        C407   1.267       .  A
O401        C415   1.269       .  A
O402        C407   1.269       .  A
O403        C406   1.271       .  A
O404        C416   1.271       .  A
O405        C418   1.270       .  A
C406        C638   1.480       .  S
C406        O411   1.269       .  A
C407        C652   1.474       .  S
O409        C412   1.269       .  A
O410        C412   1.269       .  A
C412        C585   1.473       .  S
O413        C418   1.269       .  A
O414        C416   1.270       .  A
C415        C557   1.478       .  S
C415        O417   1.268       .  A
C416        C596   1.482       .  S
C418        C568   1.492       .  S
C419        C420   1.417       .  A
C419        C424   1.422       .  A
C419        C571   1.509       .  S
C420        C421   1.405       .  A
C420        H425   1.082       .  S
C421        C422   1.401       .  A
C422        C423   1.400       .  A
C422        H426   1.083       .  S
C423        C424   1.401       .  A
C424        H427   1.078       .  S
C428        C429   1.411       .  A
C428        C433   1.412       .  A
C428        C554   1.478       .  S
C429        C430   1.406       .  A
C429        H434   1.083       .  S
C430        C431   1.403       .  A
C431        C432   1.402   1_545  A
C431        H435   1.083   1_545  S
C432       C1159   1.498       .  S
C432        C433   1.402   1_565  A
C433        H436   1.083   1_545  S
C437        C438   1.411       .  A
C437        C442   1.413       .  A
C437        C540   1.481       .  S
C438        C439   1.402   1_455  A
C438        H443   1.083   1_455  S
C439        C440   1.404   1_655  A
C440        C441   1.404       .  A
C440        H444   1.083   1_455  S
C441        C496   1.499       .  S
C441        C442   1.406       .  A
C442        H445   1.083       .  S
C446        C447   1.410       .  A
C446        C451   1.410       .  A
C446        C529   1.473       .  S
C447        C448   1.405   1_455  A
C447        H452   1.083   1_455  S
C448        C449   1.404   1_655  A
C449        C450   1.404       .  A
C449        H453   1.083   1_455  S
C450        C496   1.500       .  S
C450        C451   1.404       .  A
C451        H454   1.084       .  S
Fe455       O471   2.068   1_554  S
Fe455       O461   2.078   1_554  S
Fe456       O459   2.051   1_554  S
Fe456       O463   2.066   1_554  S
Fe457       O475   2.068       .  S
Fe457       O469   2.055       .  S
O458        C465   1.269       .  A
O459        C473   1.264       .  A
O460        C465   1.269       .  A
O461        C464   1.271       .  A
O462        C474   1.270       .  A
O463        C476   1.269       .  A
C464        C624   1.478       .  S
C464        O469   1.267       .  A
C465        C613   1.474       .  S
O467        C470   1.264       .  A
O468        C470   1.269       .  A
C470        C526   1.473       .  S
O471        C476   1.271       .  A
O472        C474   1.272       .  A
C473        C501   1.481       .  S
C473        O475   1.268       .  A
C474        C515   1.487       .  S
C476        C543   1.479       .  S
C477        C478   1.415       .  A
C477        C482   1.413       .  A
C477        C498   1.487       .  S
C478        C479   1.404       .  A
C478        H483   1.082       .  S
C479        C480   1.402       .  A
C480        C481   1.402       .  A
C480        H484   1.083       .  S
C481        C482   1.400       .  A
C482        H485   1.084       .  S
C486        C487   1.414       .  A
C486        C491   1.425       .  A
C486        C512   1.507       .  S
C487        C488   1.401       .  A
C487        H492   1.082       .  S
C488        C489   1.401       .  A
C489        C490   1.400       .  A
C489        H493   1.083       .  S
C490        C491   1.407       .  A
C491        H494   1.079       .  S
C495        C496   1.347       .  D
C495       C1047   1.501       .  S
C495       C1096   1.498       .  S
C497        C498   1.403       .  A
C497        C502   1.393       .  A
C497        H504   1.085       .  S
C498        C499   1.419       .  A
C499        C500   1.409       .  A
C499        N506   1.438       .  S
C500        C501   1.405       .  A
C500        H505   1.084       .  S
C501        C502   1.413       .  A
C502        N503   1.432       .  S
N503        O507   1.262       .  A
N503        O508   1.262       .  A
N506        O509   1.263       .  A
N506        O510   1.263       .  A
C511        C512   1.412       .  A
C511        C516   1.406       .  A
C511        H518   1.079       .  S
C512        C513   1.425       .  A
C513        C514   1.399       .  A
C513        N520   1.434       .  S
C514        C515   1.401       .  A
C514        H519   1.084       .  S
C515        C516   1.415       .  A
C516        N517   1.437       .  S
N517        O521   1.263       .  A
N517        O522   1.262       .  A
N520        O523   1.262       .  A
N520        O524   1.263       .  A
C525        C526   1.400       .  A
C525        C530   1.401       .  A
C525        H532   1.084       .  S
C526        C527   1.413       .  A
C527        C528   1.408       .  A
C527        N534   1.437       .  S
C528        C529   1.402       .  A
C528        H533   1.083       .  S
C529        C530   1.415       .  A
C530        N531   1.442       .  S
N531        O535   1.263       .  A
N531        O536   1.262       .  A
N534        O537   1.263       .  A
N534        O538   1.263       .  A
C539        C540   1.404       .  A
C539        C544   1.411       .  A
C539        H546   1.083       .  S
C540        C541   1.408       .  A
C541        C542   1.394       .  A
C541        N548   1.431       .  S
C542        C543   1.403       .  A
C542        H547   1.084       .  S
C543        C544   1.422       .  A
C544        N545   1.440       .  S
N545        O549   1.263       .  A
N545        O550   1.261       .  A
N548        O551   1.262   1_455  A
N548        O552   1.262       .  A
C553        C554   1.405       .  A
C553        C558   1.410       .  A
C553        H560   1.083       .  S
C554        C555   1.413       .  A
C555        C556   1.398       .  A
C555        N562   1.441       .  S
C556        C557   1.403       .  A
C556        H561   1.084       .  S
C557        C558   1.416       .  A
C558        N559   1.440       .  S
N559        O563   1.263       .  A
N559        O564   1.263       .  A
N562        O565   1.263       .  A
N562        O566   1.263   1_545  A
C567        C568   1.405       .  A
C567        C572   1.398       .  A
C567        H574   1.084       .  S
C568        C569   1.414       .  A
C569        C570   1.403       .  A
C569        N576   1.434       .  S
C570        C571   1.413       .  A
C570        H575   1.078       .  S
C571        C572   1.423       .  A
C572        N573   1.433       .  S
N573        O577   1.262       .  A
N573        O578   1.263       .  A
N576        O579   1.263       .  A
N576        O580   1.262       .  A
C581        C582   1.404       .  A
C581        C586   1.398       .  A
C581        H588   1.084       .  S
C582        C583   1.417       .  A
C583        C584   1.410       .  A
C583        N590   1.439       .  S
C584        C585   1.405       .  A
C584        H589   1.084       .  S
C585        C586   1.412       .  A
C586        N587   1.439       .  S
N587        O591   1.263       .  A
N587        O592   1.262       .  A
N590        O593   1.263       .  A
N590        O594   1.262       .  A
C595        C596   1.406       .  A
C595        C600   1.410       .  A
C595        H602   1.084       .  S
C596        C597   1.412       .  A
C597        C598   1.392       .  A
C597        N604   1.430       .  S
C598        C599   1.402       .  A
C598        H603   1.085       .  S
C599        C600   1.418       .  A
C600        N601   1.439       .  S
N601        O605   1.263       .  A
N601        O606   1.263       .  A
N604        O607   1.262       .  A
N604        O608   1.262       .  A
C609        C610   1.403       .  A
C609        C614   1.406       .  A
C609        H616   1.083       .  S
C610        C611   1.416       .  A
C611        C612   1.400       .  A
C611        N618   1.440       .  S
C612        C613   1.400       .  A
C612        H617   1.084       .  S
C613        C614   1.415       .  A
C614        N615   1.438       .  S
N615        O619   1.263       .  A
N615        O620   1.261       .  A
N618        O621   1.263       .  A
N618        O622   1.263       .  A
C623        C624   1.402       .  A
C623        C628   1.398       .  A
C623        H630   1.084       .  S
C624        C625   1.416       .  A
C625        C626   1.411       .  A
C625        N632   1.442       .  S
C626        C627   1.407       .  A
C626        H631   1.083       .  S
C627        C628   1.414       .  A
C628        N629   1.440       .  S
N629        O633   1.263       .  A
N629        O634   1.263       .  A
N632        O635   1.263       .  A
N632        O636   1.263       .  A
C637        C638   1.403       .  A
C637        C642   1.394       .  A
C637        H644   1.084       .  S
C638        C639   1.416       .  A
C639        C640   1.408       .  A
C639        N646   1.434       .  S
C640        C641   1.405       .  A
C640        H645   1.083       .  S
C641        C642   1.410       .  A
C642        N643   1.432       .  S
N643        O647   1.262       .  A
N643        O648   1.262       .  A
N646        O649   1.262       .  A
N646        O650   1.262       .  A
C651        C652   1.404       .  A
C651        C656   1.411       .  A
C651        H658   1.084       .  S
C652        C653   1.410       .  A
C653        C654   1.392       .  A
C653        N660   1.433       .  S
C654        C655   1.401       .  A
C654        H659   1.085       .  S
C655        C656   1.422       .  A
C656        N657   1.445       .  S
N657        O661   1.263       .  A
N657        O662   1.261       .  A
N660        O663   1.262       .  A
N660        O664   1.262       .  A
C665        C666   1.346       .  D
C665        C722   1.494       .  S
C665        C753   1.491       .  S
C666        C811   1.500       .  S
C666        C822   1.506       .  S
C667        C668   1.347       .  D
C667        C724   1.503       .  S
C667        C755   1.503       .  S
C668        C771   1.497       .  S
C668        C780   1.498       .  S
C669        C670   1.344       .  D
C669        C675   1.498       .  S
C669        C682   1.496       .  S
C670        C693   1.498       .  S
C670        C702   1.499       .  S
C671        C672   1.410       .  A
C671        C676   1.410       .  A
C671        C987   1.475       .  S
C672        C673   1.402       .  A
C672        H677   1.084       .  S
C673        C674   1.404       .  A
C674        C675   1.403       .  A
C674        H678   1.083       .  S
C675        C676   1.402       .  A
C676        H679   1.083       .  S
C680        C681   1.410       .  A
C680        C685   1.411       .  A
C680        C973   1.478       .  S
C681        C682   1.402       .  A
C681        H686   1.083       .  S
C682        C683   1.403       .  A
C683        C684   1.403       .  A
C683        H687   1.083       .  S
C684        C685   1.404       .  A
C685        H688   1.083       .  S
C689        C690   1.344       .  D
C690        C813   1.491       .  S
C690        C820   1.490       .  S
C691        C692   1.411       .  A
C691        C696   1.415       .  A
C691        C959   1.483       .  S
C692        C693   1.403   1_455  A
C692        H697   1.083   1_455  S
C693        C694   1.403   1_655  A
C694        C695   1.403       .  A
C694        H698   1.082   1_455  S
C695        C709   1.500       .  S
C695        C696   1.406       .  A
C696        H699   1.084       .  S
C700        C701   1.414       .  A
C700        C705   1.411       .  A
C700        C942   1.480       .  S
C701        C702   1.405   1_455  A
C701        H706   1.083   1_455  S
C702        C703   1.402   1_655  A
C703        C704   1.402       .  A
C703        H707   1.082   1_455  S
C704        C709   1.496       .  S
C704        C705   1.400       .  A
C705        H708   1.084       .  S
C709        C710   1.346       .  D
C710        C713   1.496       .  S
C710        C762   1.497       .  S
C711        C712   1.412       .  A
C711        C716   1.414       .  A
C711        C931   1.483       .  S
C712        C713   1.400       .  A
C712        H717   1.084       .  S
C713        C714   1.404       .  A
C714        C715   1.404       .  A
C714        H718   1.083       .  S
C715        C716   1.404       .  A
C716        H719   1.082       .  S
C720        C721   1.410       .  A
C720        C725   1.416       .  A
C720        C914   1.484       .  S
C721        C722   1.399       .  A
C721        H726   1.084       .  S
C722        C723   1.403       .  A
C723        C724   1.403       .  A
C723        H727   1.083       .  S
C724        C725   1.409       .  A
C725        H728   1.082       .  S
Fe729       O745   2.066   1_556  S
Fe729       O735   2.066   1_556  S
Fe729      O1074   2.071       .  S
Fe729      O1066   2.066       .  S
Fe729      O1072   1.960       .  S
Fe730      O1065   2.069       .  S
Fe730      O1069   2.062       .  S
Fe730       O741   2.064       .  S
Fe730       O746   2.064       .  S
Fe730       O740   1.954       .  S
Fe731      O1081   2.063       .  S
Fe731       O736   2.069       .  S
Fe731      O1075   2.066       .  S
Fe731       O732   2.061       .  S
Fe731       O740   1.959       .  S
O732        C739   1.267       .  A
O733      Fe1062   2.069       .  S
O733        C747   1.269       .  A
O734      Fe1061   2.066       .  S
O734        C739   1.269       .  A
O735        C738   1.271       .  A
O736        C748   1.271       .  A
O737      Fe1062   2.062       .  S
O737        C750   1.270       .  A
C738        C970   1.480       .  S
C738        O743   1.269       .  A
C739        C984   1.474       .  S
O740      Fe1061   1.960       .  S
O741        C744   1.269       .  A
O742      Fe1061   2.071       .  S
O742        C744   1.269       .  A
O743      Fe1063   2.066   1_554  S
C744        C917   1.472       .  S
O745        C750   1.269       .  A
O746        C748   1.270       .  A
C747        C889   1.478       .  S
C747        O749   1.268       .  A
C748        C928   1.482       .  S
O749      Fe1063   2.063   1_554  S
C750        C900   1.492       .  S
C751        C752   1.417       .  A
C751        C756   1.422       .  A
C751        C903   1.509       .  S
C752        C753   1.405       .  A
C752        H757   1.082       .  S
C753        C754   1.401       .  A
C754        C755   1.400       .  A
C754        H758   1.083       .  S
C755        C756   1.401       .  A
C756        H759   1.078       .  S
C760        C761   1.411       .  A
C760        C765   1.412       .  A
C760        C886   1.478       .  S
C761        C762   1.405       .  A
C761        H766   1.083       .  S
C762        C763   1.403       .  A
C763        C764   1.402       .  A
C763        H767   1.083       .  S
C764        C765   1.402       .  A
C765        H768   1.083       .  S
C769        C770   1.411       .  A
C769        C774   1.413       .  A
C769        C872   1.481       .  S
C770        C771   1.402   1_455  A
C770        H775   1.083   1_455  S
C771        C772   1.404   1_655  A
C772        C773   1.404       .  A
C772        H776   1.083   1_455  S
C773        C828   1.499       .  S
C773        C774   1.406       .  A
C774        H777   1.083       .  S
C778        C779   1.410       .  A
C778        C783   1.410       .  A
C778        C861   1.473       .  S
C779        C780   1.405   1_455  A
C779        H784   1.083   1_455  S
C780        C781   1.404   1_655  A
C781        C782   1.404       .  A
C781        H785   1.083   1_455  S
C782        C828   1.500       .  S
C782        C783   1.404       .  A
C783        H786   1.084       .  S
Fe787       O803   2.068       .  S
Fe787       O793   2.078       .  S
Fe787      O1132   2.080       .  S
Fe787      O1124   2.066       .  S
Fe787      O1130   1.974       .  S
Fe788       O791   2.051       .  S
Fe788       O795   2.066       .  S
Fe788      O1131   2.055       .  S
Fe788      O1136   2.064       .  S
Fe788      O1130   1.974       .  S
Fe789       O807   2.068       .  S
Fe789      O1126   2.069       .  S
Fe789       O801   2.055       .  S
Fe789      O1122   2.063       .  S
Fe789      O1130   1.979       .  S
O790      Fe1121   2.063   1_554  S
O790        C797   1.269       .  A
O791        C805   1.264       .  A
O792      Fe1119   2.066       .  S
O792        C797   1.269       .  A
O793        C796   1.271       .  A
O794      Fe1121   2.069   1_554  S
O794        C806   1.270       .  A
O795        C808   1.269       .  A
C796        C956   1.478       .  S
C796        O801   1.267       .  A
C797        C945   1.474       .  S
O798      Fe1119   1.974       .  S
O798      Fe1120   1.974       .  S
O798      Fe1121   1.979   1_554  S
O799      Fe1120   2.055       .  S
O799        C802   1.264       .  A
O800      Fe1119   2.080       .  S
O800        C802   1.269       .  A
C802        C858   1.473       .  S
O803        C808   1.271       .  A
O804      Fe1120   2.064       .  S
O804        C806   1.272       .  A
C805        C833   1.481       .  S
C805        O807   1.268       .  A
C806        C847   1.487       .  S
C808        C875   1.479       .  S
C809        C810   1.415       .  A
C809        C814   1.413       .  A
C809        C830   1.487       .  S
C810        C811   1.404       .  A
C810        H815   1.082       .  S
C811        C812   1.402       .  A
C812        C813   1.402       .  A
C812        H816   1.083       .  S
C813        C814   1.400       .  A
C814        H817   1.084       .  S
C818        C819   1.414       .  A
C818        C823   1.425       .  A
C818        C844   1.507       .  S
C819        C820   1.401       .  A
C819        H824   1.082       .  S
C820        C821   1.401       .  A
C821        C822   1.400       .  A
C821        H825   1.083       .  S
C822        C823   1.407       .  A
C823        H826   1.079       .  S
C827        C828   1.347       .  D
C829        C830   1.403       .  A
C829        C834   1.393       .  A
C829        H836   1.085       .  S
C830        C831   1.419       .  A
C831        C832   1.409       .  A
C831        N838   1.438       .  S
C832        C833   1.405       .  A
C832        H837   1.084       .  S
C833        C834   1.413       .  A
C834        N835   1.432       .  S
N835        O839   1.262       .  A
N835        O840   1.262       .  A
N838        O841   1.263       .  A
N838        O842   1.263       .  A
C843        C844   1.412       .  A
C843        C848   1.406       .  A
C843        H850   1.079       .  S
C844        C845   1.425       .  A
C845        C846   1.399       .  A
C845        N852   1.434       .  S
C846        C847   1.401       .  A
C846        H851   1.084       .  S
C847        C848   1.415       .  A
C848        N849   1.437       .  S
N849        O853   1.263       .  A
N849        O854   1.262       .  A
N852        O855   1.262       .  A
N852        O856   1.263       .  A
C857        C858   1.400       .  A
C857        C862   1.401       .  A
C857        H864   1.084       .  S
C858        C859   1.413       .  A
C859        C860   1.408       .  A
C859        N866   1.437       .  S
C860        C861   1.402       .  A
C860        H865   1.083       .  S
C861        C862   1.415       .  A
C862        N863   1.442       .  S
N863        O867   1.263       .  A
N863        O868   1.262       .  A
N866        O869   1.263       .  A
N866        O870   1.263       .  A
C871        C872   1.405       .  A
C871        C876   1.411       .  A
C871        H878   1.083       .  S
C872        C873   1.408       .  A
C873        C874   1.394       .  A
C873        N880   1.431       .  S
C874        C875   1.403       .  A
C874        H879   1.084       .  S
C875        C876   1.421       .  A
C876        N877   1.440       .  S
N877        O881   1.263       .  A
N877        O882   1.261       .  A
N880        O883   1.262   1_455  A
N880        O884   1.262       .  A
C885        C886   1.405       .  A
C885        C890   1.410       .  A
C885        H892   1.083       .  S
C886        C887   1.413       .  A
C887        C888   1.398       .  A
C887        N894   1.441       .  S
C888        C889   1.403       .  A
C888        H893   1.084       .  S
C889        C890   1.416       .  A
C890        N891   1.440       .  S
N891        O895   1.263       .  A
N891        O896   1.263       .  A
N894        O897   1.263       .  A
N894        O898   1.263       .  A
C899        C900   1.405       .  A
C899        C904   1.398       .  A
C899        H906   1.084       .  S
C900        C901   1.414       .  A
C901        C902   1.403       .  A
C901        N908   1.434       .  S
C902        C903   1.413       .  A
C902        H907   1.078       .  S
C903        C904   1.423       .  A
C904        N905   1.433       .  S
N905        O909   1.262       .  A
N905        O910   1.263       .  A
N908        O911   1.263       .  A
N908        O912   1.262       .  A
C913        C914   1.404       .  A
C913        C918   1.398       .  A
C913        H920   1.084       .  S
C914        C915   1.417       .  A
C915        C916   1.410       .  A
C915        N922   1.439       .  S
C916        C917   1.405       .  A
C916        H921   1.084       .  S
C917        C918   1.412       .  A
C918        N919   1.439       .  S
N919        O923   1.263       .  A
N919        O924   1.262       .  A
N922        O925   1.263       .  A
N922        O926   1.262       .  A
C927        C928   1.406       .  A
C927        C932   1.410       .  A
C927        H934   1.084       .  S
C928        C929   1.412       .  A
C929        C930   1.392       .  A
C929        N936   1.430       .  S
C930        C931   1.402       .  A
C930        H935   1.085       .  S
C931        C932   1.418       .  A
C932        N933   1.439       .  S
N933        O937   1.263       .  A
N933        O938   1.263       .  A
N936        O939   1.262       .  A
N936        O940   1.262       .  A
C941        C942   1.403       .  A
C941        C946   1.406       .  A
C941        H948   1.083       .  S
C942        C943   1.417       .  A
C943        C944   1.400       .  A
C943        N950   1.440       .  S
C944        C945   1.400       .  A
C944        H949   1.084       .  S
C945        C946   1.415       .  A
C946        N947   1.438       .  S
N947        O951   1.263       .  A
N947        O952   1.261       .  A
N950        O953   1.263       .  A
N950        O954   1.263       .  A
C955        C956   1.403       .  A
C955        C960   1.398       .  A
C955        H962   1.084       .  S
C956        C957   1.416       .  A
C957        C958   1.411       .  A
C957        N964   1.442       .  S
C958        C959   1.407       .  A
C958        H963   1.083       .  S
C959        C960   1.414       .  A
C960        N961   1.440       .  S
N961        O965   1.263       .  A
N961        O966   1.263       .  A
N964        O967   1.263       .  A
N964        O968   1.263       .  A
C969        C970   1.403       .  A
C969        C974   1.394       .  A
C969        H976   1.084       .  S
C970        C971   1.416       .  A
C971        C972   1.408       .  A
C971        N978   1.434       .  S
C972        C973   1.405       .  A
C972        H977   1.083       .  S
C973        C974   1.410       .  A
C974        N975   1.432       .  S
N975        O979   1.262       .  A
N975        O980   1.262       .  A
N978        O981   1.262       .  A
N978        O982   1.262       .  A
C983        C984   1.404       .  A
C983        C988   1.411       .  A
C983        H990   1.084       .  S
C984        C985   1.410       .  A
C985        C986   1.392       .  A
C985        N992   1.433       .  S
C986        C987   1.401       .  A
C986        H991   1.085       .  S
C987        C988   1.422       .  A
C988        N989   1.445       .  S
N989        O993   1.263       .  A
N989        O994   1.261       .  A
N992        O995   1.262       .  A
N992        O996   1.262       .  A
C997        C998   1.346       .  D
C997       C1054   1.494       .  S
C997       C1085   1.491       .  S
C998       C1143   1.500       .  S
C998       C1154   1.506       .  S
C999       C1000   1.347       .  D
C999       C1056   1.503       .  S
C999       C1087   1.503       .  S
C1000      C1103   1.497       .  S
C1000      C1112   1.498       .  S
C1001      C1002   1.344       .  D
C1001      C1007   1.498       .  S
C1001      C1014   1.496       .  S
C1002      C1025   1.498       .  S
C1002      C1034   1.499       .  S
C1003      C1004   1.410       .  A
C1003      C1008   1.410       .  A
C1003      C1319   1.475       .  S
C1004      C1005   1.402       .  A
C1004      H1009   1.084       .  S
C1005      C1006   1.404       .  A
C1006      C1007   1.403       .  A
C1006      H1010   1.083       .  S
C1007      C1008   1.402       .  A
C1008      H1011   1.083       .  S
C1012      C1013   1.410       .  A
C1012      C1017   1.411       .  A
C1012      C1305   1.478       .  S
C1013      C1014   1.402       .  A
C1013      H1018   1.083       .  S
C1014      C1015   1.403       .  A
C1015      C1016   1.403       .  A
C1015      H1019   1.083       .  S
C1016      C1017   1.404       .  A
C1017      H1020   1.083       .  S
C1021      C1022   1.344       .  D
C1022      C1145   1.491       .  S
C1022      C1152   1.490       .  S
C1023      C1024   1.411       .  A
C1023      C1028   1.415       .  A
C1023      C1291   1.483       .  S
C1024      C1025   1.403   1_455  A
C1024      H1029   1.083   1_455  S
C1025      C1026   1.403   1_655  A
C1026      C1027   1.403       .  A
C1026      H1030   1.082   1_455  S
C1027      C1041   1.500       .  S
C1027      C1028   1.406       .  A
C1028      H1031   1.084       .  S
C1032      C1033   1.414       .  A
C1032      C1037   1.411       .  A
C1032      C1274   1.480       .  S
C1033      C1034   1.405   1_455  A
C1033      H1038   1.083   1_455  S
C1034      C1035   1.402   1_655  A
C1035      C1036   1.402       .  A
C1035      H1039   1.082   1_455  S
C1036      C1041   1.495       .  S
C1036      C1037   1.400       .  A
C1037      H1040   1.084       .  S
C1041      C1042   1.346       .  D
C1042      C1045   1.496       .  S
C1042      C1094   1.497       .  S
C1043      C1044   1.412       .  A
C1043      C1048   1.414       .  A
C1043      C1263   1.483       .  S
C1044      C1045   1.400       .  A
C1044      H1049   1.084       .  S
C1045      C1046   1.404       .  A
C1046      C1047   1.404       .  A
C1046      H1050   1.083       .  S
C1047      C1048   1.404       .  A
C1048      H1051   1.082       .  S
C1052      C1053   1.410       .  A
C1052      C1057   1.416       .  A
C1052      C1246   1.484       .  S
C1053      C1054   1.399       .  A
C1053      H1058   1.084       .  S
C1054      C1055   1.403       .  A
C1055      C1056   1.403       .  A
C1055      H1059   1.083       .  S
C1056      C1057   1.409       .  A
C1057      H1060   1.082       .  S
Fe1061     O1077   2.066       .  S
Fe1061     O1067   2.066       .  S
Fe1062     O1073   2.064   1_554  S
Fe1062     O1078   2.064   1_554  S
Fe1062     O1072   1.954   1_554  S
Fe1063     O1068   2.069       .  S
Fe1063     O1064   2.061       .  S
Fe1063     O1072   1.959       .  S
O1064      C1071   1.267       .  A
O1065      C1079   1.269       .  A
O1066      C1071   1.269       .  A
O1067      C1070   1.271       .  A
O1068      C1080   1.271       .  A
O1069      C1082   1.270       .  A
C1070      C1302   1.480       .  S
C1070      O1075   1.269       .  A
C1071      C1316   1.474       .  S
O1073      C1076   1.269       .  A
O1074      C1076   1.269       .  A
C1076      C1249   1.473       .  S
O1077      C1082   1.269       .  A
O1078      C1080   1.270       .  A
C1079      C1221   1.478       .  S
C1079      O1081   1.268       .  A
C1080      C1260   1.482       .  S
C1082      C1232   1.492       .  S
C1083      C1084   1.417       .  A
C1083      C1088   1.422       .  A
C1083      C1235   1.509       .  S
C1084      C1085   1.405       .  A
C1084      H1089   1.082       .  S
C1085      C1086   1.401       .  A
C1086      C1087   1.400       .  A
C1086      H1090   1.083       .  S
C1087      C1088   1.401       .  A
C1088      H1091   1.078       .  S
C1092      C1093   1.411       .  A
C1092      C1097   1.412       .  A
C1092      C1218   1.478       .  S
C1093      C1094   1.406       .  A
C1093      H1098   1.083       .  S
C1094      C1095   1.403       .  A
C1095      C1096   1.402       .  A
C1095      H1099   1.083       .  S
C1096      C1097   1.402       .  A
C1097      H1100   1.083       .  S
C1101      C1102   1.411       .  A
C1101      C1106   1.413       .  A
C1101      C1204   1.481       .  S
C1102      C1103   1.402   1_455  A
C1102      H1107   1.083   1_455  S
C1103      C1104   1.404   1_655  A
C1104      C1105   1.404       .  A
C1104      H1108   1.083   1_455  S
C1105      C1160   1.499       .  S
C1105      C1106   1.406       .  A
C1106      H1109   1.083       .  S
C1110      C1111   1.410       .  A
C1110      C1115   1.410       .  A
C1110      C1193   1.473       .  S
C1111      C1112   1.405   1_455  A
C1111      H1116   1.083   1_455  S
C1112      C1113   1.404   1_655  A
C1113      C1114   1.404       .  A
C1113      H1117   1.083   1_455  S
C1114      C1160   1.500       .  S
C1114      C1115   1.404       .  A
C1115      H1118   1.084       .  S
Fe1119     O1135   2.068   1_554  S
Fe1119     O1125   2.078   1_554  S
Fe1120     O1123   2.051   1_554  S
Fe1120     O1127   2.066   1_554  S
Fe1121     O1139   2.068       .  S
Fe1121     O1133   2.055       .  S
O1122      C1129   1.269       .  A
O1123      C1137   1.264       .  A
O1124      C1129   1.269       .  A
O1125      C1128   1.271       .  A
O1126      C1138   1.270       .  A
O1127      C1140   1.269       .  A
C1128      C1288   1.478       .  S
C1128      O1133   1.267       .  A
C1129      C1277   1.474       .  S
O1131      C1134   1.264       .  A
O1132      C1134   1.269       .  A
C1134      C1190   1.473       .  S
O1135      C1140   1.271       .  A
O1136      C1138   1.272       .  A
C1137      C1165   1.481       .  S
C1137      O1139   1.268       .  A
C1138      C1179   1.487       .  S
C1140      C1207   1.479       .  S
C1141      C1142   1.415       .  A
C1141      C1146   1.413       .  A
C1141      C1162   1.487       .  S
C1142      C1143   1.404       .  A
C1142      H1147   1.082       .  S
C1143      C1144   1.402       .  A
C1144      C1145   1.402       .  A
C1144      H1148   1.083       .  S
C1145      C1146   1.400       .  A
C1146      H1149   1.084       .  S
C1150      C1151   1.414       .  A
C1150      C1155   1.425       .  A
C1150      C1176   1.507       .  S
C1151      C1152   1.401       .  A
C1151      H1156   1.082       .  S
C1152      C1153   1.401       .  A
C1153      C1154   1.400       .  A
C1153      H1157   1.083       .  S
C1154      C1155   1.407       .  A
C1155      H1158   1.079       .  S
C1159      C1160   1.347       .  D
C1161      C1162   1.403       .  A
C1161      C1166   1.393       .  A
C1161      H1168   1.085       .  S
C1162      C1163   1.419       .  A
C1163      C1164   1.409       .  A
C1163      N1170   1.438       .  S
C1164      C1165   1.405       .  A
C1164      H1169   1.084       .  S
C1165      C1166   1.413       .  A
C1166      N1167   1.432       .  S
N1167      O1171   1.262       .  A
N1167      O1172   1.262       .  A
N1170      O1173   1.263       .  A
N1170      O1174   1.263       .  A
C1175      C1176   1.412       .  A
C1175      C1180   1.406       .  A
C1175      H1182   1.079       .  S
C1176      C1177   1.425       .  A
C1177      C1178   1.399       .  A
C1177      N1184   1.434       .  S
C1178      C1179   1.401       .  A
C1178      H1183   1.084       .  S
C1179      C1180   1.415       .  A
C1180      N1181   1.437       .  S
N1181      O1185   1.263       .  A
N1181      O1186   1.262       .  A
N1184      O1187   1.262       .  A
N1184      O1188   1.263       .  A
C1189      C1190   1.400       .  A
C1189      C1194   1.401       .  A
C1189      H1196   1.084       .  S
C1190      C1191   1.413       .  A
C1191      C1192   1.408       .  A
C1191      N1198   1.437       .  S
C1192      C1193   1.402       .  A
C1192      H1197   1.083       .  S
C1193      C1194   1.415       .  A
C1194      N1195   1.442       .  S
N1195      O1199   1.263       .  A
N1195      O1200   1.262       .  A
N1198      O1201   1.263       .  A
N1198      O1202   1.263       .  A
C1203      C1204   1.404       .  A
C1203      C1208   1.411       .  A
C1203      H1210   1.083       .  S
C1204      C1205   1.408       .  A
C1205      C1206   1.394       .  A
C1205      N1212   1.431       .  S
C1206      C1207   1.403       .  A
C1206      H1211   1.084       .  S
C1207      C1208   1.422       .  A
C1208      N1209   1.440       .  S
N1209      O1213   1.263       .  A
N1209      O1214   1.261       .  A
N1212      O1215   1.262   1_455  A
N1212      O1216   1.262       .  A
C1217      C1218   1.405       .  A
C1217      C1222   1.410       .  A
C1217      H1224   1.083       .  S
C1218      C1219   1.413       .  A
C1219      C1220   1.398       .  A
C1219      N1226   1.441       .  S
C1220      C1221   1.403       .  A
C1220      H1225   1.084       .  S
C1221      C1222   1.416       .  A
C1222      N1223   1.440       .  S
N1223      O1227   1.263       .  A
N1223      O1228   1.263       .  A
N1226      O1229   1.263       .  A
N1226      O1230   1.263       .  A
C1231      C1232   1.405       .  A
C1231      C1236   1.398       .  A
C1231      H1238   1.084       .  S
C1232      C1233   1.414       .  A
C1233      C1234   1.403       .  A
C1233      N1240   1.434       .  S
C1234      C1235   1.413       .  A
C1234      H1239   1.078       .  S
C1235      C1236   1.423       .  A
C1236      N1237   1.433       .  S
N1237      O1241   1.262       .  A
N1237      O1242   1.263       .  A
N1240      O1243   1.263       .  A
N1240      O1244   1.262       .  A
C1245      C1246   1.404       .  A
C1245      C1250   1.398       .  A
C1245      H1252   1.084       .  S
C1246      C1247   1.417       .  A
C1247      C1248   1.410       .  A
C1247      N1254   1.439       .  S
C1248      C1249   1.405       .  A
C1248      H1253   1.084       .  S
C1249      C1250   1.412       .  A
C1250      N1251   1.439       .  S
N1251      O1255   1.263       .  A
N1251      O1256   1.262       .  A
N1254      O1257   1.263       .  A
N1254      O1258   1.262       .  A
C1259      C1260   1.406       .  A
C1259      C1264   1.410       .  A
C1259      H1266   1.084       .  S
C1260      C1261   1.412       .  A
C1261      C1262   1.392       .  A
C1261      N1268   1.430       .  S
C1262      C1263   1.402       .  A
C1262      H1267   1.085       .  S
C1263      C1264   1.418       .  A
C1264      N1265   1.439       .  S
N1265      O1269   1.263       .  A
N1265      O1270   1.263       .  A
N1268      O1271   1.262       .  A
N1268      O1272   1.262       .  A
C1273      C1274   1.403       .  A
C1273      C1278   1.406       .  A
C1273      H1280   1.083       .  S
C1274      C1275   1.417       .  A
C1275      C1276   1.400       .  A
C1275      N1282   1.440       .  S
C1276      C1277   1.400       .  A
C1276      H1281   1.084       .  S
C1277      C1278   1.415       .  A
C1278      N1279   1.438       .  S
N1279      O1283   1.263       .  A
N1279      O1284   1.261       .  A
N1282      O1285   1.263       .  A
N1282      O1286   1.263       .  A
C1287      C1288   1.402       .  A
C1287      C1292   1.398       .  A
C1287      H1294   1.084       .  S
C1288      C1289   1.416       .  A
C1289      C1290   1.411       .  A
C1289      N1296   1.442       .  S
C1290      C1291   1.407       .  A
C1290      H1295   1.083       .  S
C1291      C1292   1.414       .  A
C1292      N1293   1.440       .  S
N1293      O1297   1.263       .  A
N1293      O1298   1.263       .  A
N1296      O1299   1.263       .  A
N1296      O1300   1.263       .  A
C1301      C1302   1.403       .  A
C1301      C1306   1.394       .  A
C1301      H1308   1.084       .  S
C1302      C1303   1.416       .  A
C1303      C1304   1.408       .  A
C1303      N1310   1.434       .  S
C1304      C1305   1.405       .  A
C1304      H1309   1.083       .  S
C1305      C1306   1.410       .  A
C1306      N1307   1.432       .  S
N1307      O1311   1.262       .  A
N1307      O1312   1.262       .  A
N1310      O1313   1.262       .  A
N1310      O1314   1.262       .  A
C1315      C1316   1.404       .  A
C1315      C1320   1.411       .  A
C1315      H1322   1.084       .  S
C1316      C1317   1.410       .  A
C1317      C1318   1.392       .  A
C1317      N1324   1.433       .  S
C1318      C1319   1.401       .  A
C1318      H1323   1.085       .  S
C1319      C1320   1.422       .  A
C1320      N1321   1.445       .  S
N1321      O1325   1.263       .  A
N1321      O1326   1.261       .  A
N1324      O1327   1.262       .  A
N1324      O1328   1.262       .  A
