geometry optimzed in LAMMPS
_audit_creation_date              2020-11-30 
_audit_creation_method            'lammps2cif' 
_symmetry_space_group_name_H-M    'P1' 
_symmetry_Int_Tables_number       1 
_symmetry_cell_setting            triclinic 
loop_ 
_symmetry_equiv_pos_as_xyz 
  x,y,z 
_cell_length_a                    50.82455982 
_cell_length_b                    52.23186139516327 
_cell_length_c                    40.661887513540805 
_cell_angle_alpha                 89.89291996939022 
_cell_angle_beta                  89.65247671390797 
_cell_angle_gamma                 89.7519749093102 
loop_ 
_atom_site_label 
_atom_site_type_symbol 
_atom_site_fract_x 
_atom_site_fract_y 
_atom_site_fract_z 
_atom_site_charge 
O1          O  0.24713920  0.21387742  0.41133597    -0.86700
O2          O  0.24698348  0.22103772  0.60048079    -0.86800
O3          O  0.29042524  0.18771384  0.50532878    -0.88500
O4          O  0.20593402  0.18527777  0.50939758    -0.87200
O5          O  0.17301408  0.21488107  0.50427509    -0.86800
O6          O  0.32139230  0.21930382  0.50534492    -0.88200
O7          O  0.24799461  0.18915308  0.56162386    -0.86700
O8          O  0.24793417  0.18518981  0.45426726    -0.86300
Zr9        Zr  0.24747286  0.20804266  0.50654751     2.84300
O10         O  0.22064043  0.23408592  0.53924538    -1.08200
O11         O  0.27271234  0.23300719  0.47049297    -1.09000
C12         C  0.24793605  0.19086375  0.42330753     1.06500
C13         C  0.24749854  0.19721582  0.59169826     1.06400
C14         C  0.31441920  0.19557692  0.50550074     1.09400
C15         C  0.18150485  0.19161467  0.50669866     1.07200
H16         H  0.28476125  0.22539056  0.55206258     0.32700
O17         O  0.27342147  0.23531682  0.53823260    -1.29200
H18         H  0.20966042  0.21993738  0.45844408     0.32400
O19         O  0.22035521  0.23149762  0.47118528    -1.30900
O20         O  0.24895385  0.30557832  0.59383381    -0.86600
O21         O  0.24468138  0.29935757  0.40716971    -0.88100
O22         O  0.32147694  0.26332575  0.55427483    -0.86700
O23         O  0.17172400  0.25725966  0.55742418    -0.86800
O24         O  0.17086351  0.25516061  0.45124044    -0.86500
O25         O  0.32058589  0.25817475  0.44907510    -0.86300
O26         O  0.28565380  0.33244013  0.50026711    -0.86700
O27         O  0.20057304  0.32929315  0.49710375    -0.86100
O28         O  0.31825289  0.30229003  0.49712212    -0.87200
O29         O  0.16981565  0.29777321  0.50297330    -0.86300
O30         O  0.29067131  0.26380580  0.59595056    -0.86700
O31         O  0.28932377  0.25650211  0.40853899    -0.86500
O32         O  0.20178858  0.25552791  0.40968139    -0.86100
O33         O  0.20281602  0.26309869  0.59745845    -0.86500
O34         O  0.24296583  0.33338617  0.55144148    -0.86800
O35         O  0.24412990  0.33063316  0.44678670    -0.88200
Zr36       Zr  0.24656962  0.26201968  0.57080597     2.83100
Zr37       Zr  0.24557458  0.25709795  0.43523546     2.83500
Zr38       Zr  0.29849630  0.26029545  0.50211803     2.84100
Zr39       Zr  0.19324399  0.25719560  0.50394965     2.83400
Zr40       Zr  0.24396142  0.30991807  0.50004114     2.84200
O41         O  0.21812416  0.28276703  0.46818838    -1.08700
O42         O  0.27188377  0.28680105  0.53459877    -1.08200
C43         C  0.24659736  0.32854385  0.58212335     1.06400
C44         C  0.24442890  0.32313644  0.41662260     1.09000
C45         C  0.31468069  0.26394980  0.58490000     1.06600
C46         C  0.17873551  0.26040160  0.58759499     1.07000
C47         C  0.17778372  0.25481854  0.42063518     1.06500
C48         C  0.31347456  0.25696832  0.41871801     1.06100
C49         C  0.31000541  0.32563745  0.49809176     1.06500
C50         C  0.17666788  0.32138152  0.49977874     1.06000
H51         H  0.28201901  0.29492821  0.45309441     0.32700
O52         O  0.27135455  0.28431359  0.46733137    -1.29800
H53         H  0.20724341  0.29619627  0.54872445     0.32700
O54         O  0.21854221  0.28517541  0.53582863    -1.31200
N55         N  0.03645176  0.00842714  0.47332163    -0.36800
N56         N  0.49525227  0.46947091  0.47381639    -0.57300
N57         N  0.45513516  0.00891772  0.47349145    -0.36800
N58         N  0.49636459  0.04780990  0.47618180    -0.57300
C59         C  0.05080513  0.48743738  0.48102822     0.26800
C60         C  0.05162031  0.02904904  0.47954073     0.26800
C61         C  0.43965604  0.48812607  0.47734911     0.26800
C62         C  0.44045563  0.02966423  0.48143508     0.26800
C63         C  0.01657356  0.45407830  0.47176958     0.35400
C64         C  0.47409272  0.45422467  0.47021956     0.35400
C65         C  0.01755690  0.06308805  0.47261106     0.35400
C66         C  0.47506425  0.06327110  0.47495454     0.35400
C67         C  0.07563695  0.49476083  0.49123032    -0.22100
C68         C  0.07626625  0.02097818  0.48990881    -0.22100
C69         C  0.41442916  0.49592331  0.48609841    -0.22100
C70         C  0.41505586  0.02204753  0.48923351    -0.22100
C71         C  0.00897854  0.42895473  0.46666151    -0.23100
C72         C  0.48208330  0.42900352  0.46595451    -0.23100
C73         C  0.00966167  0.08837813  0.46907461    -0.23100
C74         C  0.48274072  0.08848459  0.47047065    -0.23100
C75         C  0.04261899  0.46174746  0.47805602    -0.18500
C76         C  0.04388999  0.05498902  0.47637504    -0.18500
C77         C  0.44889281  0.05542876  0.48068595    -0.18500
C78         C  0.44766680  0.46225216  0.47393080    -0.18500
H79         H  0.09172202  0.48248655  0.49878906     0.14400
H80         H  0.09292809  0.03271093  0.49641766     0.14400
H81         H  0.39738288  0.48403804  0.49052778     0.14400
H82         H  0.39857084  0.03406059  0.49629893     0.14400
H83         H  0.02147874  0.41218076  0.46479273     0.12700
H84         H  0.46989009  0.41220326  0.46347273     0.12700
H85         H  0.02198819  0.10513033  0.46673764     0.12700
H86         H  0.47026820  0.10530433  0.46918316     0.12700
H87         H  0.01827882  0.00860369  0.46187625     0.26000
H88         H  0.47399011  0.00909975  0.46374434     0.26000
O89         O  0.50216398  0.44445032  0.90818461    -0.86700
O90         O  0.49982566  0.44702060  0.09737125    -0.86800
O91         O  0.04632654  0.41561725  0.00525780    -0.88500
O92         O  0.46149896  0.41390523  0.00526055    -0.87200
O93         O  0.42897128  0.44383890  0.00015718    -0.86800
O94         O  0.07704244  0.44752390  0.00734419    -0.88200
O95         O  0.50126716  0.41602347  0.05729554    -0.86700
O96         O  0.50300152  0.41420571  0.94945107    -0.86300
Zr97       Zr  0.50324727  0.43603618  0.00291194     2.84300
O98         O  0.47584380  0.46153008  0.03591135    -1.08200
O99         O  0.02916343  0.46173191  0.96846003    -1.09000
C100        C  0.50219837  0.42110908  0.91885764     1.06500
C101        C  0.49994837  0.42344096  0.08761229     1.06400
C102        C  0.07017521  0.42378483  0.00761248     1.09400
C103        C  0.43716518  0.42050522  0.00271862     1.07200
H104        H  0.03920286  0.45250257  0.05061339     0.32700
O105        O  0.02824408  0.46278486  0.03645062    -1.29200
H106        H  0.46557827  0.44953067  0.95520910     0.32400
O107        O  0.47633353  0.46058551  0.96842595    -1.30900
O108        O  0.50239016  0.03137133  0.09467288    -0.86600
O109        O  0.49714144  0.02894782  0.90730897    -0.88100
O110        O  0.07567688  0.49033958  0.05597175    -0.86700
O111        O  0.42665055  0.48455934  0.05410466    -0.86800
O112        O  0.42741867  0.48685154  0.94870197    -0.84500
O113        O  0.07624657  0.48559637  0.94847393    -0.86300
O114        O  0.04207361  0.06064460  0.99809709    -0.86700
O115        O  0.45699364  0.05827835  0.99859540    -0.86100
O116        O  0.07494056  0.03031538  0.99922022    -0.87200
O117        O  0.42584877  0.02687666  0.00072104    -0.86300
O118        O  0.04385358  0.48937593  0.09641239    -0.86700
O119        O  0.04583726  0.98867719  0.90735622    -0.86500
O120        O  0.45846830  0.98533147  0.90759866    -0.86100
O121        O  0.45669165  0.49005376  0.09512740    -0.86500
O122        O  0.49865387  0.06052078  0.05307114    -0.86800
O123        O  0.49937101  0.05945457  0.94743905    -0.88200
Zr124      Zr  0.50082566  0.48864910  0.06939711     2.83100
Zr125      Zr  0.50204726  0.48674519  0.93398455     2.83500
Zr126      Zr  0.05435561  0.48832553  0.00215536     2.84100
Zr127      Zr  0.44916069  0.48604741  0.00148975     2.83400
Zr128      Zr  0.50024937  0.03840298  0.00056623     2.84200
O129        O  0.47475744  0.01204227  0.96739929    -1.08700
O130        O  0.02725940  0.01419547  0.03507027    -1.08200
C131        C  0.50078858  0.05462636  0.08373787     1.06400
C132        C  0.49700109  0.05253511  0.91720251     1.09000
C133        C  0.06807496  0.49017915  0.08642485     1.06600
C134        C  0.43280291  0.48765356  0.08452011     1.07000
C135        C  0.43433885  0.98586844  0.91819747     1.06500
C136        C  0.06989364  0.98746193  0.91781744     1.06100
C137        C  0.06640410  0.05358737  0.99759773     1.06500
C138        C  0.43294044  0.05053122  0.99909083     1.06000
H139        H  0.03837555  0.02385391  0.95369621     0.32700
O140        O  0.02770500  0.01311035  0.96751613    -1.29800
H141        H  0.46246021  0.02396159  0.04783640     0.32700
O142        O  0.47391864  0.01318306  0.03483520    -1.31200
N143        N  0.21137001  0.23712032  0.99329288    -0.36800
N144        N  0.25112071  0.19907802  0.98225290    -0.57300
N145        N  0.29113568  0.23814848  0.98186283    -0.36800
N146        N  0.25081067  0.27632226  0.99276996    -0.57300
C147        C  0.19881538  0.21545802  0.00226188     0.26800
C148        C  0.19819085  0.25690335  0.00700328     0.26800
C149        C  0.30592085  0.21683860  0.98604979     0.26800
C150        C  0.30580705  0.25826423  0.99143334     0.26800
C151        C  0.22942865  0.18529968  0.97556340     0.35400
C152        C  0.27184486  0.18555059  0.97077590     0.35400
C153        C  0.22903975  0.29109044  0.99102783     0.35400
C154        C  0.27140448  0.29180565  0.98658017     0.35400
C155        C  0.17762342  0.22150863  0.02254165    -0.22100
C156        C  0.17705443  0.24783805  0.02521159    -0.22100
C157        C  0.33046416  0.22348192  0.99793670    -0.22100
C158        C  0.33047103  0.24970989  0.00109450    -0.22100
C159        C  0.23636858  0.16309902  0.95887296    -0.23100
C160        C  0.26340301  0.16303584  0.95643485    -0.23100
C161        C  0.23577188  0.31611126  0.98337955    -0.23100
C162        C  0.26273194  0.31661650  0.98090571    -0.23100
C163        C  0.20432524  0.19107298  0.98882800    -0.18500
C164        C  0.20383060  0.28285308  0.00090250    -0.18500
C165        C  0.29789293  0.28417220  0.98962029    -0.18500
C166        C  0.29816806  0.19181432  0.97752585    -0.18500
H167        H  0.16342292  0.20840836  0.03305972     0.14400
H168        H  0.16251755  0.25905018  0.03845696     0.14400
H169        H  0.34680388  0.21081290  0.00327365     0.14400
H170        H  0.34684525  0.26112981  0.00939145     0.14400
H171        H  0.22348072  0.14790353  0.95094606     0.12700
H172        H  0.27551224  0.14791193  0.94614932     0.12700
H173        H  0.22274607  0.33247882  0.98130661     0.12700
H174        H  0.27458829  0.33342454  0.97633470     0.12700
H175        H  0.22571165  0.23863547  0.97498193     0.26000
H176        H  0.27313024  0.23917692  0.96988126     0.26000
C177        C  0.49857452  0.21448497  0.22820990     0.86300
C178        C  0.02216927  0.21900756  0.25143609    -0.53900
C179        C  0.02129129  0.24130518  0.26915810     0.09200
C180        C  0.49570828  0.25663143  0.26309231     0.20200
C181        C  0.47524991  0.21517895  0.25215159    -0.54600
C182        C  0.47290620  0.23718516  0.26978578     0.09400
C183        C  0.49590969  0.23920669  0.20785333    -0.54200
C184        C  0.49554385  0.26161495  0.22544729     0.09900
H185        H  0.03781001  0.20521043  0.25526199     0.14400
H186        H  0.49499619  0.27425384  0.27782146     0.00200
H187        H  0.46131842  0.19958841  0.25479116     0.14700
H188        H  0.49449350  0.23873218  0.18125810     0.14500
C189        C  0.24873123  0.03097326  0.27926087     0.86300
C190        C  0.27327856  0.02903843  0.25666671    -0.53900
C191        C  0.27391323  0.50827090  0.23579862     0.09200
C192        C  0.24945165  0.49089383  0.24046594     0.20200
C193        C  0.22511031  0.02921793  0.25649587    -0.54600
C194        C  0.22508441  0.50850871  0.23641858     0.09400
C195        C  0.24980922  0.50503415  0.29740781    -0.54200
C196        C  0.25003914  0.48380558  0.27759011     0.09900
H197        H  0.28951405  0.04235482  0.25859013     0.14400
H198        H  0.24892348  0.47453245  0.22333321     0.00200
H199        H  0.20911424  0.04309476  0.25683430     0.14700
H200        H  0.25200264  0.50341395  0.32380334     0.14500
C201        C  0.49239891  0.21356693  0.77433083     0.86300
C202        C  0.47066908  0.21788430  0.74849232    -0.53900
C203        C  0.47174589  0.24101906  0.73260013     0.09200
C204        C  0.49616477  0.25707450  0.74207942     0.20200
C205        C  0.01751465  0.21632841  0.75334159    -0.54600
C206        C  0.01996377  0.23893728  0.73692945     0.09400
C207        C  0.49093049  0.23766334  0.79601331    -0.54200
C208        C  0.49344779  0.26065776  0.77978800     0.09900
H209        H  0.45566168  0.20405989  0.74251872     0.14400
H210        H  0.49851863  0.27501623  0.72790479     0.00200
H211        H  0.03205016  0.20116575  0.75077537     0.14700
H212        H  0.48722287  0.23632723  0.82225105     0.14500
C213        C  0.25720430  0.03621464  0.73084986     0.86300
C214        C  0.23282704  0.03384699  0.75334043    -0.53900
C215        C  0.22944190  0.51065251  0.76838368     0.09200
C216        C  0.25209909  0.49161562  0.76026688     0.20200
C217        C  0.28038804  0.02887521  0.75280003    -0.54600
C218        C  0.27788784  0.50592718  0.76887182     0.09400
C219        C  0.25379739  0.51323757  0.70723639    -0.54200
C220        C  0.25204203  0.48990355  0.72244312     0.09900
H221        H  0.21857335  0.04911447  0.75611383     0.14400
H222        H  0.25003187  0.47259349  0.77205001     0.00200
H223        H  0.29721128  0.04133853  0.75618080     0.14700
H224        H  0.25237753  0.51504713  0.68074450     0.14500
C225        C  0.08907240  0.49092211  0.11170516     0.01200
C226        C  0.10851045  0.47153518  0.11254316     0.04000
C227        C  0.13007290  0.47350809  0.13402356    -0.12100
C228        C  0.13274733  0.49517619  0.15437678     0.23300
C229        C  0.11277578  0.01408159  0.15451991    -0.12600
C230        C  0.09064564  0.01156806  0.13397746     0.04700
C231        C  0.15660232  0.49804054  0.17538427     0.27100
C232        C  0.15498448  0.49401603  0.20964619    -0.13300
C233        C  0.17739865  0.49719234  0.22944639     0.05200
C234        C  0.20200702  0.50323463  0.21501025    -0.09300
C235        C  0.20371703  0.00684546  0.18069162     0.06000
C236        C  0.18102334  0.00470751  0.16104129    -0.13700
Br237      Br  0.11619259  0.04396813  0.18199753    -0.05700
Br238      Br  0.10490691  0.44149140  0.08549186    -0.00100
Br239      Br  0.17415052  0.49335057  0.27658142     0.00400
Br240      Br  0.18308406  0.01189804  0.11450777    -0.04100
Br241      Br  0.06263424  0.03656770  0.13640171     0.00500
Br242      Br  0.15607706  0.44647467  0.13561410    -0.03400
Br243      Br  0.12194435  0.48416294  0.22953458    -0.04200
Br244      Br  0.23682771  0.01611761  0.16073632    -0.00200
C245        C  0.29724879  0.50260025  0.21332019     0.01200
C246        C  0.30684374  0.47723629  0.20739075     0.04000
C247        C  0.32830678  0.47308715  0.18568397    -0.12100
C248        C  0.34341770  0.49387332  0.17449759     0.23300
C249        C  0.33562698  0.01881448  0.18282971    -0.12600
C250        C  0.31126128  0.02307492  0.19830295     0.04700
C251        C  0.36602503  0.49023838  0.15142709     0.27100
C252        C  0.39039441  0.48065014  0.16248877    -0.13300
C253        C  0.41204473  0.47879207  0.14061487     0.05200
C254        C  0.41022715  0.48897765  0.10832205    -0.09300
C255        C  0.38592533  0.49998282  0.09820846     0.06000
C256        C  0.36367864  0.49892855  0.11880897    -0.13700
Br257      Br  0.35823082  0.04740777  0.17210355    -0.05700
Br258      Br  0.29344782  0.44748617  0.22978736    -0.00100
Br259      Br  0.44344341  0.46129182  0.15516083     0.00400
Br260      Br  0.32978127  0.01018895  0.10256704    -0.04100
Br261      Br  0.29586685  0.05629873  0.19195062     0.00500
Br262      Br  0.33674259  0.43897417  0.17046281    -0.03400
Br263      Br  0.39434117  0.47117436  0.20809374    -0.04200
Br264      Br  0.38284906  0.01936611  0.05782056    -0.00200
C265        C  0.49813433  0.40288664  0.11282133     0.01200
C266        C  0.01749369  0.40020352  0.13740619     0.04000
C267        C  0.01756846  0.37841316  0.15803488    -0.12100
C268        C  0.49791652  0.35959477  0.15481107     0.23300
C269        C  0.47787093  0.36294634  0.13142049    -0.12600
C270        C  0.47789177  0.38453304  0.11067709     0.04700
C271        C  0.49888718  0.33555591  0.17463526     0.27100
C272        C  0.01417053  0.31483556  0.16363357    -0.13300
C273        C  0.01400643  0.29138339  0.18088425     0.05200
C274        C  0.49729155  0.28776416  0.20895348    -0.09300
C275        C  0.48257706  0.30940300  0.22041076     0.06000
C276        C  0.48369460  0.33304404  0.20340766    -0.13700
Br277      Br  0.45091219  0.33727148  0.12691581    -0.05700
Br278      Br  0.04460015  0.42567304  0.14200025    -0.00100
Br279      Br  0.03868851  0.26559535  0.16590970     0.00400
Br280      Br  0.46409833  0.36247565  0.21903716    -0.04100
Br281      Br  0.44948177  0.38930681  0.08004186     0.00500
Br282      Br  0.04529471  0.37352379  0.18963900    -0.03400
Br283      Br  0.03530357  0.31887980  0.12418898    -0.04200
Br284      Br  0.45973706  0.30812549  0.25839933    -0.00200
C285        C  0.50158711  0.07652805  0.10763971     0.01200
C286        C  0.49095845  0.07431097  0.13999296     0.04000
C287        C  0.49122983  0.09550333  0.16159129    -0.12100
C288        C  0.50096593  0.11929077  0.15088161     0.23300
C289        C  0.01159680  0.12167402  0.11904558    -0.12600
C290        C  0.01241422  0.10049958  0.09775977     0.04700
C291        C  0.49963230  0.14232953  0.17239349     0.27100
C292        C  0.47672371  0.15753948  0.17310900    -0.13300
C293        C  0.47635678  0.18102467  0.19034452     0.05200
C294        C  0.49944486  0.19008299  0.20635838    -0.09300
C295        C  0.02323202  0.17643748  0.20000701     0.06000
C296        C  0.02271456  0.15162044  0.18675203    -0.13700
Br297      Br  0.02481992  0.15453787  0.10438381    -0.05700
Br298      Br  0.47411765  0.04322335  0.15487547    -0.00100
Br299      Br  0.44473427  0.20157505  0.18779255     0.00400
Br300      Br  0.05452887  0.13121371  0.18523784    -0.04100
Br301      Br  0.02921666  0.10548350  0.05539987     0.00500
Br302      Br  0.47822483  0.09227768  0.20609812    -0.03400
Br303      Br  0.44631517  0.14664250  0.14855822    -0.04200
Br304      Br  0.05628875  0.19389664  0.19541385    -0.00200
C305        C  0.09132451  0.40447060  0.01117800     0.01200
C306        C  0.11487750  0.40672911  0.99267100     0.04000
C307        C  0.13459266  0.38794893  0.99549993    -0.12100
C308        C  0.13032915  0.36623699  0.01530600     0.23300
C309        C  0.10756755  0.36447234  0.03496303    -0.12600
C310        C  0.08827801  0.38376162  0.03340067     0.04700
C311        C  0.14842637  0.34412417  0.01281525     0.27100
C312        C  0.14601782  0.32718651  0.98605995    -0.13300
C313        C  0.16337345  0.30634354  0.98294845     0.05200
C314        C  0.18315016  0.30245802  0.00659442    -0.09300
C315        C  0.18475713  0.31871831  0.03412087     0.06000
C316        C  0.16764270  0.33978239  0.03700154    -0.13700
Br317      Br  0.10274370  0.33526874  0.06358636    -0.05700
Br318      Br  0.11973670  0.43422635  0.96131752    -0.00100
Br319      Br  0.16042368  0.28349339  0.94593446     0.00400
Br320      Br  0.17089317  0.36307797  0.07348120    -0.04100
Br321      Br  0.05840904  0.38192835  0.06288023     0.00500
Br322      Br  0.16742326  0.39155650  0.97184113    -0.03400
Br323      Br  0.11918277  0.33294395  0.95334637    -0.04200
Br324      Br  0.21045693  0.31194293  0.06779502    -0.00200
C325        C  0.41718005  0.39973649  0.00246412     0.01200
C326        C  0.39179720  0.40396926  0.01624676     0.04000
C327        C  0.37229538  0.38511444  0.01362867    -0.12100
C328        C  0.37839056  0.36121163  0.99956418     0.23300
C329        C  0.40398251  0.35614550  0.98790445    -0.12600
C330        C  0.42314254  0.37546129  0.98836941     0.04700
C331        C  0.35781029  0.34137138  0.99699949     0.27100
C332        C  0.34864699  0.32879832  0.02553885    -0.13300
C333        C  0.32784782  0.31132522  0.02330653     0.05200
C334        C  0.31827283  0.30421551  0.99221473    -0.09300
C335        C  0.32824148  0.31588437  0.96354041     0.06000
C336        C  0.34710663  0.33531833  0.96604726    -0.13700
Br337      Br  0.41275320  0.32240771  0.97144239    -0.05700
Br338      Br  0.38351532  0.43458046  0.04107079    -0.00100
Br339      Br  0.31203350  0.29754004  0.06275371     0.00400
Br340      Br  0.35782912  0.35400937  0.92723177    -0.04100
Br341      Br  0.45690222  0.36793998  0.96820535     0.00500
Br342      Br  0.33692810  0.39207721  0.02915864    -0.03400
Br343      Br  0.36498006  0.33508118  0.06750941    -0.04200
Br344      Br  0.31603590  0.30508954  0.92093458    -0.00200
C345        C  0.41209902  0.07049415  0.99718320     0.01200
C346        C  0.39026509  0.06737631  0.97606461     0.04000
C347        C  0.37160203  0.08716610  0.97273284    -0.12100
C348        C  0.37509860  0.11052510  0.98924046     0.23300
C349        C  0.39670253  0.11375642  0.01031586    -0.12600
C350        C  0.41471573  0.09358887  0.01507248     0.04700
C351        C  0.35530354  0.13126490  0.98569194     0.27100
C352        C  0.35536056  0.14718024  0.95759818    -0.13300
C353        C  0.33645609  0.16681488  0.95456742     0.05200
C354        C  0.31775442  0.17073048  0.97979078    -0.09300
C355        C  0.31788977  0.15495007  0.00794573     0.06000
C356        C  0.33623282  0.13490276  0.01053673    -0.13700
Br357      Br  0.40161023  0.14601708  0.03255765    -0.05700
Br358      Br  0.38607809  0.03681080  0.95001302    -0.00100
Br359      Br  0.33603643  0.18839410  0.91603701     0.00400
Br360      Br  0.33491838  0.11197349  0.04780152    -0.04100
Br361      Br  0.44197458  0.09746062  0.04766715     0.00500
Br362      Br  0.34094675  0.08242296  0.94561184    -0.03400
Br363      Br  0.38118585  0.14188038  0.92326038    -0.04200
Br364      Br  0.29354586  0.16147036  0.04361777    -0.00200
C365        C  0.08606881  0.07388850  0.99473179     0.01200
C366        C  0.09417353  0.08260814  0.96348866     0.04000
C367        C  0.11423656  0.10097868  0.96096764    -0.12100
C368        C  0.12375405  0.11288445  0.98967360     0.23300
C369        C  0.11379357  0.10558826  0.02074749    -0.12600
C370        C  0.09645489  0.08489476  0.02330290     0.04700
C371        C  0.14461268  0.13257598  0.98775621     0.27100
C372        C  0.16953388  0.12738526  0.00129523    -0.13300
C373        C  0.18798293  0.14712623  0.00440459     0.05200
C374        C  0.18340583  0.17105530  0.98908436    -0.09300
C375        C  0.15893035  0.17568239  0.97359925     0.06000
C376        C  0.13909759  0.15701823  0.97476682    -0.13700
Br377      Br  0.12330730  0.12433950  0.05979052    -0.05700
Br378      Br  0.07748124  0.06972692  0.92433122    -0.00100
Br379      Br  0.21839583  0.14166508  0.03188738     0.00400
Br380      Br  0.10408448  0.16527263  0.95966976    -0.04100
Br381      Br  0.08786929  0.07092244  0.06586705     0.00500
Br382      Br  0.12906899  0.10916877  0.91843595    -0.03400
Br383      Br  0.17847646  0.09308818  0.01540480    -0.04200
Br384      Br  0.15228770  0.20719476  0.95002114    -0.00200
C385        C  0.41240422  0.48518839  0.89405883     0.01200
C386        C  0.41198445  0.00200690  0.86674319     0.04000
C387        C  0.39015433  0.00235561  0.84544699    -0.12100
C388        C  0.36803382  0.48694331  0.85214497     0.23300
C389        C  0.36821058  0.47043267  0.87950654    -0.12600
C390        C  0.39037485  0.46918011  0.90003070     0.04700
C391        C  0.34355308  0.49008277  0.83253289     0.27100
C392        C  0.32663492  0.01085326  0.83911106    -0.13300
C393        C  0.30411187  0.01486158  0.81980597     0.05200
C394        C  0.29791186  0.49786614  0.79392535    -0.09300
C395        C  0.31314379  0.47526838  0.79029618     0.06000
C396        C  0.33655410  0.47203236  0.80845251    -0.13700
Br397      Br  0.33726942  0.45056400  0.88994673    -0.05700
Br398      Br  0.43957940  0.02685687  0.86044178    -0.00100
Br399      Br  0.28092258  0.04300310  0.83040947     0.00400
Br400      Br  0.35969767  0.44341449  0.79963599    -0.04100
Br401      Br  0.38977752  0.44547316  0.93658376     0.00500
Br402      Br  0.38983644  0.02483134  0.80771069    -0.03400
Br403      Br  0.33464374  0.03402484  0.87457424    -0.04200
Br404      Br  0.30170634  0.44781200  0.76257661    -0.00200
C405        C  0.09224351  0.48908225  0.89330013     0.01200
C406        C  0.11570542  0.00243340  0.90150934     0.04000
C407        C  0.13644256  0.00475031  0.87856446    -0.12100
C408        C  0.13511831  0.49258331  0.84776831     0.23300
C409        C  0.11244643  0.47852119  0.83966841    -0.12600
C410        C  0.09083297  0.47732115  0.86181100     0.04700
C411        C  0.15812609  0.49436934  0.82470167     0.27100
C412        C  0.15705359  0.01006035  0.79655616    -0.13300
C413        C  0.17957375  0.01322345  0.77653358     0.05200
C414        C  0.20467448  0.50432213  0.78743811    -0.09300
C415        C  0.20558318  0.48932536  0.81653105     0.06000
C416        C  0.18211964  0.48246800  0.83296420    -0.13700
Br417      Br  0.11168717  0.45993922  0.79863654    -0.05700
Br418      Br  0.12063258  0.01821205  0.94401493    -0.00100
Br419      Br  0.17437599  0.02776489  0.73312454     0.00400
Br420      Br  0.18270235  0.45713318  0.86761562    -0.04100
Br421      Br  0.06014192  0.45829197  0.84881215     0.00500
Br422      Br  0.16711874  0.02491148  0.88938777    -0.03400
Br423      Br  0.12495522  0.02818198  0.78604067    -0.04200
Br424      Br  0.23843139  0.48093956  0.83751039    -0.00200
C425        C  0.49187408  0.18840994  0.79511560     0.01200
C426        C  0.46850635  0.17377819  0.79989038     0.04000
C427        C  0.46966471  0.14903396  0.81372867    -0.12100
C428        C  0.49273011  0.14033398  0.82897938     0.23300
C429        C  0.01513952  0.15596994  0.82877962    -0.12600
C430        C  0.01494769  0.17970243  0.81200807     0.04700
C431        C  0.49207138  0.11688217  0.84996870     0.27100
C432        C  0.48022284  0.11811046  0.88126191    -0.13300
C433        C  0.48011390  0.09650803  0.90190504     0.05200
C434        C  0.49374734  0.07375771  0.89265150    -0.09300
C435        C  0.00514510  0.07245922  0.86072207     0.06000
C436        C  0.00369526  0.09378923  0.83931680    -0.13700
Br437      Br  0.04591926  0.14494024  0.85291213    -0.05700
Br438      Br  0.43398403  0.18912851  0.79857645    -0.00100
Br439      Br  0.45956998  0.09856468  0.94192617     0.00400
Br440      Br  0.01784966  0.09175223  0.79528630    -0.04100
Br441      Br  0.04611292  0.20059685  0.81624329     0.00500
Br442      Br  0.43899680  0.12724668  0.81359223    -0.03400
Br443      Br  0.46456824  0.14990570  0.89630500    -0.04200
Br444      Br  0.02411850  0.04238083  0.84617756    -0.00200
C445        C  0.49359304  0.28624142  0.79752475     0.01200
C446        C  0.48202897  0.30881122  0.78384819     0.04000
C447        C  0.48448951  0.33265163  0.79998709    -0.12100
C448        C  0.49415797  0.33376928  0.83229492     0.23300
C449        C  0.00362326  0.31122896  0.84710646    -0.12600
C450        C  0.00586123  0.28848958  0.82879145     0.04700
C451        C  0.49581674  0.35853881  0.85056993     0.27100
C452        C  0.02074538  0.36878227  0.85812424    -0.13300
C453        C  0.02296240  0.38869608  0.88126111     0.05200
C454        C  0.50018253  0.40052162  0.89405174    -0.09300
C455        C  0.47522018  0.39229428  0.88355809     0.06000
C456        C  0.47295249  0.37064315  0.86309997    -0.13700
Br457      Br  0.01380982  0.31153989  0.89287495    -0.05700
Br458      Br  0.46068341  0.30834612  0.74485045    -0.00100
Br459      Br  0.05712823  0.39888836  0.89669405     0.00400
Br460      Br  0.43857628  0.35700742  0.85372232    -0.04100
Br461      Br  0.02954049  0.26269455  0.84565686     0.00500
Br462      Br  0.47568789  0.36406937  0.77734332    -0.03400
Br463      Br  0.05185245  0.35538646  0.83668901    -0.04200
Br464      Br  0.44414384  0.41063146  0.89757173    -0.00200
C465        C  0.33654850  0.26332977  0.60890990     0.01200
C466        C  0.34428712  0.28555785  0.62597470     0.04000
C467        C  0.36664506  0.28489621  0.64655000    -0.12100
C468        C  0.38064903  0.26175359  0.65120818     0.23300
C469        C  0.37221158  0.23941124  0.63509135    -0.12600
C470        C  0.35099750  0.24043820  0.61305122     0.04700
C471        C  0.40441894  0.26050073  0.67263468     0.27100
C472        C  0.42985298  0.26010254  0.65848641    -0.13300
C473        C  0.45215433  0.25519823  0.67815711     0.05200
C474        C  0.44915927  0.25028744  0.71211291    -0.09300
C475        C  0.42384819  0.25295858  0.72658932     0.06000
C476        C  0.40158909  0.25756928  0.70688393    -0.13700
Br477      Br  0.38954981  0.20716063  0.64376359    -0.05700
Br478      Br  0.32494018  0.31707150  0.62002449    -0.00100
Br479      Br  0.48654771  0.25486440  0.65819676     0.00400
Br480      Br  0.36693985  0.25874527  0.72656625    -0.04100
Br481      Br  0.34226814  0.21047056  0.58772072     0.00500
Br482      Br  0.37844343  0.31564451  0.66797871    -0.03400
Br483      Br  0.43385664  0.26524346  0.61172786    -0.04200
Br484      Br  0.41962091  0.25212111  0.77375716    -0.00200
C485        C  0.15702417  0.26063248  0.61240738     0.01200
C486        C  0.13371430  0.27485732  0.60629121     0.04000
C487        C  0.11171997  0.27247707  0.62733230    -0.12100
C488        C  0.11286580  0.25640079  0.65510406     0.23300
C489        C  0.13630017  0.24288373  0.66195239    -0.12600
C490        C  0.15825229  0.24483863  0.64065290     0.04700
C491        C  0.08885394  0.25243679  0.67581814     0.27100
C492        C  0.08340571  0.26851143  0.70281706    -0.13300
C493        C  0.06072478  0.26449200  0.72239777     0.05200
C494        C  0.04321723  0.24430034  0.71511788    -0.09300
C495        C  0.04893522  0.22812357  0.68802144     0.06000
C496        C  0.07137370  0.23248537  0.66824800    -0.13700
Br497      Br  0.13774893  0.22062054  0.69979130    -0.05700
Br498      Br  0.13157849  0.29806606  0.56932804    -0.00100
Br499      Br  0.05504060  0.28567297  0.76050420     0.00400
Br500      Br  0.07824454  0.21127640  0.63027241    -0.04100
Br501      Br  0.18901480  0.22400810  0.64894061     0.00500
Br502      Br  0.07937888  0.29034560  0.61739714    -0.03400
Br503      Br  0.10733096  0.29594548  0.71295100    -0.04200
Br504      Br  0.02621140  0.19976474  0.67750183    -0.00200
C505        C  0.26043305  0.06300708  0.71438295     0.01200
C506        C  0.25110816  0.08577587  0.73005325     0.04000
C507        C  0.24768441  0.10855504  0.71187471    -0.12100
C508        C  0.25704877  0.11024641  0.67939489     0.23300
C509        C  0.27113127  0.08950457  0.66590083    -0.12600
C510        C  0.27333015  0.06619958  0.68341152     0.04700
C511        C  0.25290719  0.13403110  0.65965380     0.27100
C512        C  0.23255780  0.13499437  0.63633150    -0.13300
C513        C  0.22966334  0.15655917  0.61581067     0.05200
C514        C  0.24758871  0.17711282  0.61773250    -0.09300
C515        C  0.26673311  0.17697877  0.64284563     0.06000
C516        C  0.26946807  0.15541559  0.66358452    -0.13700
Br517      Br  0.28771622  0.09342991  0.62328615    -0.05700
Br518      Br  0.24786612  0.08831598  0.77732281    -0.00100
Br519      Br  0.20008719  0.15851250  0.58632710     0.00400
Br520      Br  0.29645762  0.15473209  0.69677286    -0.04100
Br521      Br  0.29768962  0.04102624  0.66649291     0.00500
Br522      Br  0.22995053  0.13761249  0.73141234    -0.03400
Br523      Br  0.20888729  0.10639793  0.63221529    -0.04200
Br524      Br  0.28979107  0.20581989  0.64859501    -0.00200
C525        C  0.25102294  0.46525194  0.70381464     0.01200
C526        C  0.27357866  0.45629115  0.68679211     0.04000
C527        C  0.27307851  0.43263095  0.67020582    -0.12100
C528        C  0.24934041  0.41888204  0.66750856     0.23300
C529        C  0.22646761  0.42842900  0.68308029    -0.12600
C530        C  0.22766339  0.45071084  0.70257595     0.04700
C531        C  0.24819249  0.39554316  0.64628542     0.27100
C532        C  0.25061686  0.39816550  0.61202753    -0.13300
C533        C  0.25263040  0.37640651  0.59179633     0.05200
C534        C  0.24805058  0.35137018  0.60489726    -0.09300
C535        C  0.24439164  0.34901426  0.63959613     0.06000
C536        C  0.24569183  0.37088104  0.66006460    -0.13700
Br537      Br  0.19305764  0.41200303  0.67574837    -0.05700
Br538      Br  0.30551940  0.47611820  0.68610181    -0.00100
Br539      Br  0.26445635  0.38231364  0.54698765     0.00400
Br540      Br  0.24441263  0.36715683  0.70733447    -0.04100
Br541      Br  0.19685539  0.46126733  0.72663120     0.00500
Br542      Br  0.30499848  0.41912618  0.65071784    -0.03400
Br543      Br  0.25084451  0.43206403  0.59264514    -0.04200
Br544      Br  0.23696138  0.31648053  0.66043927    -0.00200
C545        C  0.42898515  0.07570294  0.48683753     0.01200
C546        C  0.42868721  0.08891173  0.51707584     0.04000
C547        C  0.41112305  0.10940633  0.52184436    -0.12100
C548        C  0.39258710  0.11537534  0.49736405     0.23300
C549        C  0.39211329  0.10137107  0.46779051    -0.12600
C550        C  0.41087833  0.08213563  0.46208788     0.04700
C551        C  0.37381138  0.13669804  0.50209977     0.27100
C552        C  0.35106906  0.13312503  0.52135824    -0.13300
C553        C  0.33219956  0.15278572  0.52379253     0.05200
C554        C  0.33545653  0.17576948  0.50553215    -0.09300
C555        C  0.35852294  0.17913841  0.48621140     0.06000
C556        C  0.37789403  0.15990475  0.48533381    -0.13700
Br557      Br  0.36583223  0.10874253  0.43498130    -0.05700
Br558      Br  0.45213916  0.07872552  0.55195634    -0.00100
Br559      Br  0.30248417  0.14785889  0.55306849     0.00400
Br560      Br  0.40988631  0.16478536  0.46012969    -0.04100
Br561      Br  0.41236439  0.06510203  0.42003654     0.00500
Br562      Br  0.41297995  0.12987205  0.56123165    -0.03400
Br563      Br  0.34545766  0.10076748  0.54342339    -0.04200
Br564      Br  0.36320351  0.20872688  0.45818071    -0.00200
C565        C  0.06411540  0.07498392  0.48162980     0.01200
C566        C  0.07217140  0.08072207  0.51387692     0.04000
C567        C  0.09225265  0.09860769  0.51905701    -0.12100
C568        C  0.10271425  0.11248366  0.49221440     0.23300
C569        C  0.09348302  0.10776496  0.46010341    -0.12600
C570        C  0.07497371  0.08833216  0.45470849     0.04700
C571        C  0.12325916  0.13212338  0.49762934     0.27100
C572        C  0.11680823  0.15532472  0.51339322    -0.13300
C573        C  0.13634481  0.17381513  0.51884477     0.05200
C574        C  0.16184728  0.17056615  0.50511970    -0.09300
C575        C  0.16793505  0.14744233  0.48829242     0.06000
C576        C  0.14908670  0.12790160  0.48609535    -0.13700
Br577      Br  0.10568393  0.12837323  0.42361125    -0.05700
Br578      Br  0.05538185  0.06414836  0.55094100    -0.00100
Br579      Br  0.12798625  0.20268165  0.54678178     0.00400
Br580      Br  0.15847794  0.09538015  0.46640564    -0.04100
Br581      Br  0.06438208  0.07996860  0.41055126     0.00500
Br582      Br  0.10564870  0.10367643  0.56288424    -0.03400
Br583      Br  0.08076773  0.16235120  0.52601871    -0.04200
Br584      Br  0.20099423  0.14257982  0.46527371    -0.00200
C585        C  0.15562991  0.34105852  0.49964728     0.01200
C586        C  0.15924953  0.36438258  0.51678419     0.04000
C587        C  0.14014371  0.38377813  0.51499606    -0.12100
C588        C  0.11695057  0.37971079  0.49720371     0.23300
C589        C  0.11231589  0.35597852  0.48211172    -0.12600
C590        C  0.13185220  0.33687596  0.48248303     0.04700
C591        C  0.09811860  0.40095310  0.49270066     0.27100
C592        C  0.07995346  0.40708380  0.51776538    -0.13300
C593        C  0.06251164  0.42769125  0.51348492     0.05200
C594        C  0.06241889  0.44131852  0.48351953    -0.09300
C595        C  0.08058017  0.43517415  0.45847070     0.06000
C596        C  0.09876306  0.41527748  0.46330065    -0.13700
Br597      Br  0.07900723  0.34987100  0.46095116    -0.05700
Br598      Br  0.18962633  0.36996822  0.54414888    -0.00100
Br599      Br  0.03903643  0.43761426  0.54875671     0.00400
Br600      Br  0.12471696  0.40769330  0.42979771    -0.04100
Br601      Br  0.12619943  0.30603917  0.45732210     0.00500
Br602      Br  0.14566564  0.41613289  0.53685831    -0.03400
Br603      Br  0.07886321  0.38703620  0.55766295    -0.04200
Br604      Br  0.08024319  0.45386373  0.41748636    -0.00200
C605        C  0.42750279  0.44203390  0.47823756     0.01200
C606        C  0.41777209  0.43644482  0.51002579     0.04000
C607        C  0.39855327  0.41752862  0.51425893    -0.12100
C608        C  0.39028811  0.40305736  0.48702519     0.23300
C609        C  0.40108683  0.40766842  0.45555899    -0.12600
C610        C  0.41891193  0.42779735  0.45095527     0.04700
C611        C  0.36949392  0.38365519  0.49106043     0.27100
C612        C  0.37492876  0.36046706  0.50730361    -0.13300
C613        C  0.35497829  0.34226380  0.51146739     0.05200
C614        C  0.33014545  0.34602823  0.49640652    -0.09300
C615        C  0.32517610  0.36908869  0.47898858     0.06000
C616        C  0.34439429  0.38828574  0.47784205    -0.13700
Br617      Br  0.39158151  0.38618080  0.41887124    -0.05700
Br618      Br  0.43075509  0.45472708  0.54784429    -0.00100
Br619      Br  0.36204903  0.31301800  0.53935659     0.00400
Br620      Br  0.33655453  0.42102168  0.45768922    -0.04100
Br621      Br  0.43154267  0.43589896  0.40733230     0.00500
Br622      Br  0.38328365  0.41175901  0.55727346    -0.03400
Br623      Br  0.41002859  0.35331275  0.52308180    -0.04200
Br624      Br  0.29333114  0.37423884  0.45397490    -0.00200
C625        C  0.15604126  0.25356716  0.39657170     0.01200
C626        C  0.15017545  0.27489354  0.37653209     0.04000
C627        C  0.12729160  0.27503301  0.35710466    -0.12100
C628        C  0.11090306  0.25332388  0.35619969     0.23300
C629        C  0.11726438  0.23163873  0.37528875    -0.12600
C630        C  0.13947045  0.23192531  0.39587627     0.04700
C631        C  0.08779325  0.25278856  0.33382756     0.27100
C632        C  0.06224064  0.25798518  0.34570321    -0.13300
C633        C  0.04031034  0.25638665  0.32449679     0.05200
C634        C  0.04386177  0.24914478  0.29106676    -0.09300
C635        C  0.07001613  0.24736008  0.27886570     0.06000
C636        C  0.09163948  0.24791337  0.30023258    -0.13700
Br637      Br  0.09551293  0.20150141  0.37299724    -0.05700
Br638      Br  0.17311499  0.30420296  0.37625167    -0.00100
Br639      Br  0.00636340  0.26566847  0.34203453     0.00400
Br640      Br  0.12678546  0.24157081  0.28356675    -0.04100
Br641      Br  0.14743256  0.20237177  0.42267228     0.00500
Br642      Br  0.11787963  0.30517621  0.33223019    -0.03400
Br643      Br  0.05758165  0.26711092  0.39137386    -0.04200
Br644      Br  0.07708560  0.24822852  0.23251960    -0.00200
C645        C  0.33519251  0.25562642  0.39411508     0.01200
C646        C  0.33751009  0.23434426  0.37291018     0.04000
C647        C  0.35985289  0.23155219  0.35243806    -0.12100
C648        C  0.38022753  0.24980231  0.35327458     0.23300
C649        C  0.37778843  0.27124258  0.37405344    -0.12600
C650        C  0.35531920  0.27426825  0.39422239     0.04700
C651        C  0.40409540  0.24659917  0.33205210     0.27100
C652        C  0.42640583  0.23342681  0.34388735    -0.13300
C653        C  0.44876075  0.23008300  0.32350317     0.05200
C654        C  0.44952465  0.24111192  0.29172144    -0.09300
C655        C  0.42615613  0.25191902  0.27892573     0.06000
C656        C  0.40392695  0.25550035  0.29934722    -0.13700
Br657      Br  0.40556641  0.29629130  0.37506707    -0.05700
Br658      Br  0.31104491  0.20798211  0.37345338    -0.00100
Br659      Br  0.47657851  0.20727842  0.33738826     0.00400
Br660      Br  0.37277350  0.27197031  0.28234834    -0.04100
Br661      Br  0.35200137  0.30437053  0.42149847     0.00500
Br662      Br  0.36290893  0.20239588  0.32359630    -0.03400
Br663      Br  0.42584508  0.21924484  0.38772695    -0.04200
Br664      Br  0.42289906  0.25811208  0.23232408    -0.00200
C665        C  0.25306017  0.45725579  0.29193217     0.01200
C666        C  0.27205577  0.45269610  0.31675898     0.04000
C667        C  0.27101571  0.43026466  0.33609682    -0.12100
C668        C  0.25340815  0.41050448  0.32812399     0.23300
C669        C  0.23700085  0.41342293  0.30053752    -0.12600
C670        C  0.23629032  0.43681291  0.28297864     0.04700
C671        C  0.25081374  0.38741600  0.34980726     0.27100
C672        C  0.26892430  0.36688513  0.34775319    -0.13300
C673        C  0.26627352  0.34534788  0.36863494     0.05200
C674        C  0.24528906  0.34398913  0.39153429    -0.09300
C675        C  0.22702808  0.36451346  0.39326129     0.06000
C676        C  0.22983412  0.38604646  0.37257658    -0.13700
Br677      Br  0.21455026  0.38543673  0.28788611    -0.05700
Br678      Br  0.30132496  0.47578190  0.32236114    -0.00100
Br679      Br  0.29265461  0.31868033  0.36756872     0.00400
Br680      Br  0.20513528  0.41416662  0.37582115    -0.04100
Br681      Br  0.21171772  0.44011699  0.24740393     0.00500
Br682      Br  0.29237062  0.42746917  0.37501983    -0.03400
Br683      Br  0.29761117  0.36847407  0.31658614    -0.04200
Br684      Br  0.19784760  0.36335220  0.42390400    -0.00200
C685        C  0.24703559  0.05541813  0.30087556     0.01200
C686        C  0.23472142  0.05573945  0.33252018     0.04000
C687        C  0.23614291  0.07779442  0.35257500    -0.12100
C688        C  0.24820997  0.10022816  0.34074383     0.23300
C689        C  0.25700299  0.10113325  0.30798420    -0.12600
C690        C  0.25428592  0.07960447  0.28758470     0.04700
C691        C  0.24857153  0.12388355  0.36121711     0.27100
C692        C  0.22918579  0.14298683  0.35681079    -0.13300
C693        C  0.22974047  0.16561645  0.37568880     0.05200
C694        C  0.24907483  0.16882306  0.40017602    -0.09300
C695        C  0.26861016  0.14970041  0.40424048     0.06000
C696        C  0.26843348  0.12746121  0.38470153    -0.13700
Br697      Br  0.27170851  0.13244371  0.29052953    -0.05700
Br698      Br  0.21012409  0.02951320  0.34592954    -0.00100
Br699      Br  0.20343440  0.19166492  0.36835477     0.00400
Br700      Br  0.29538455  0.10169795  0.39010972    -0.04100
Br701      Br  0.25297002  0.08592216  0.24103426     0.00500
Br702      Br  0.22007469  0.07805381  0.39575594    -0.03400
Br703      Br  0.20132654  0.13760891  0.32550004    -0.04200
Br704      Br  0.29649890  0.15424894  0.43566771    -0.00200
O705        O  0.24713785  0.71387708  0.41133754    -0.86700
O706        O  0.24698413  0.72103669  0.60048181    -0.86800
O707        O  0.29042512  0.68771302  0.50532716    -0.88500
O708        O  0.20593412  0.68527766  0.50940086    -0.87200
O709        O  0.17301408  0.71488065  0.50427738    -0.86800
O710        O  0.32139233  0.71930288  0.50534206    -0.88200
O711        O  0.24799565  0.68915220  0.56162468    -0.86700
O712        O  0.24793266  0.68518937  0.45426873    -0.86300
Zr713      Zr  0.24747292  0.70804214  0.50654875     2.84300
O714        O  0.22064074  0.73408520  0.53924705    -1.08200
O715        O  0.27271198  0.73300657  0.47049377    -1.09000
C716        C  0.24793421  0.69086341  0.42330908     1.06500
C717        C  0.24749942  0.69721486  0.59169907     1.06400
C718        C  0.31441911  0.69557604  0.50549729     1.09400
C719        C  0.18150496  0.69161436  0.50670163     1.07200
H720        H  0.28476199  0.72538931  0.55206327     0.32700
O721        O  0.27342198  0.73531580  0.53823370    -1.29200
H722        H  0.20965999  0.71993695  0.45844582     0.32400
O723        O  0.22035501  0.73149716  0.47118687    -1.30900
O724        O  0.24895441  0.80557697  0.59383601    -0.86600
O725        O  0.24468077  0.79935730  0.40717140    -0.88100
O726        O  0.32147761  0.76332324  0.55427511    -0.86700
O727        O  0.17172477  0.75725858  0.55742659    -0.86800
O728        O  0.17086304  0.75516019  0.45124285    -0.86500
O729        O  0.32058575  0.75817469  0.44907596    -0.86300
O730        O  0.28565402  0.83243897  0.50026981    -0.86700
O731        O  0.20057279  0.82929238  0.49710687    -0.86100
O732        O  0.31825281  0.80228872  0.49712280    -0.87200
O733        O  0.16981533  0.79777235  0.50297550    -0.86300
O734        O  0.29067237  0.76380404  0.59595125    -0.86700
O735        O  0.28932353  0.75650167  0.40854003    -0.86500
O736        O  0.20178771  0.75552783  0.40968335    -0.86100
O737        O  0.20281700  0.76309838  0.59746030    -0.86500
O738        O  0.24296579  0.83338473  0.55144378    -0.86800
O739        O  0.24412973  0.83063275  0.44678858    -0.88200
Zr740      Zr  0.24657037  0.76201869  0.57080738     2.83100
Zr741      Zr  0.24557411  0.75709759  0.43523676     2.83500
Zr742      Zr  0.29849620  0.76029448  0.50211872     2.84100
Zr743      Zr  0.19324408  0.75719500  0.50395168     2.83400
Zr744      Zr  0.24396141  0.80991736  0.50004293     2.84200
O745        O  0.21812394  0.78276652  0.46819022    -1.08700
O746        O  0.27188416  0.78680019  0.53459998    -1.08200
C747        C  0.24659739  0.82854245  0.58212564     1.06400
C748        C  0.24442854  0.82313613  0.41662441     1.09000
C749        C  0.31468167  0.76394737  0.58490037     1.06600
C750        C  0.17873642  0.76040105  0.58759723     1.07000
C751        C  0.17778292  0.75481834  0.42063747     1.06500
C752        C  0.31347442  0.75696817  0.41871894     1.06100
C753        C  0.31000554  0.82563611  0.49809373     1.06500
C754        C  0.17666759  0.82138068  0.49978161     1.06000
H755        H  0.28201863  0.79492764  0.45309573     0.32700
O756        O  0.27135428  0.78431298  0.46733265    -1.29800
H757        H  0.20724396  0.79619527  0.54872645     0.32700
O758        O  0.21854263  0.78517453  0.53583052    -1.31200
N759        N  0.03645318  0.50842778  0.47331252    -0.36800
N760        N  0.49525120  0.96947020  0.47382431    -0.57300
N761        N  0.45513663  0.50891864  0.47348279    -0.36800
N762        N  0.49636627  0.54781080  0.47617126    -0.57300
C763        C  0.05080358  0.98743675  0.48103771     0.26800
C764        C  0.05162187  0.52904974  0.47953095     0.26800
C765        C  0.43965472  0.98812499  0.47735688     0.26800
C766        C  0.44045742  0.52966542  0.48142628     0.26800
C767        C  0.01657259  0.95407784  0.47177677     0.35400
C768        C  0.47409178  0.95422400  0.47022647     0.35400
C769        C  0.01755864  0.56308878  0.47259995     0.35400
C770        C  0.47506602  0.56327202  0.47494308     0.35400
C771        C  0.07563506  0.99476012  0.49124105    -0.22100
C772        C  0.07626804  0.52097893  0.48989816    -0.22100
C773        C  0.41442758  0.99592188  0.48610556    -0.22100
C774        C  0.41505775  0.52204902  0.48922569    -0.22100
C775        C  0.00897782  0.92895447  0.46666682    -0.23100
C776        C  0.48208257  0.92900306  0.46595968    -0.23100
C777        C  0.00966358  0.58837878  0.46906192    -0.23100
C778        C  0.48274258  0.58848534  0.47045774    -0.23100
C779        C  0.04261783  0.96174688  0.47806405    -0.18500
C780        C  0.04389153  0.55498976  0.47636545    -0.18500
C781        C  0.44889471  0.55542994  0.48067577    -0.18500
C782        C  0.44766584  0.96225123  0.47393829    -0.18500
H783        H  0.09171991  0.98248581  0.49880043     0.14400
H784        H  0.09292999  0.53271178  0.49640634     0.14400
H785        H  0.39738131  0.98403642  0.49053413     0.14400
H786        H  0.39857295  0.53406233  0.49629122     0.14400
H787        H  0.02147818  0.91218070  0.46479679     0.12700
H788        H  0.46988956  0.91220278  0.46347683     0.12700
H789        H  0.02199022  0.60513086  0.46672433     0.12700
H790        H  0.47027013  0.60530509  0.46916938     0.12700
H791        H  0.01827984  0.50860422  0.46186820     0.26000
H792        H  0.47399135  0.50910039  0.46373493     0.26000
O793        O  0.50216432  0.94445096  0.90818546    -0.86700
O794        O  0.49982640  0.94702049  0.09737195    -0.86800
O795        O  0.04632687  0.91561767  0.00525853    -0.88500
O796        O  0.46149927  0.91390568  0.00526131    -0.87200
O797        O  0.42897171  0.94383939  0.00015766    -0.86800
O798        O  0.07704279  0.94752431  0.00734469    -0.88200
O799        O  0.50126742  0.91602357  0.05729595    -0.86700
O800        O  0.50300199  0.91420627  0.94945184    -0.86300
Zr801      Zr  0.50324764  0.93603661  0.00291264     2.84300
O802        O  0.47584434  0.96153042  0.03591226    -1.08200
O803        O  0.02916371  0.96173241  0.96846063    -1.09000
C804        C  0.50219875  0.92110970  0.91885846     1.06500
C805        C  0.49994889  0.92344091  0.08761276     1.06400
C806        C  0.07017555  0.92378528  0.00761296     1.09400
C807        C  0.43716551  0.92050568  0.00271922     1.07200
H808        H  0.03920335  0.95250273  0.05061398     0.32700
O809        O  0.02824457  0.96278509  0.03645139    -1.29200
H810        H  0.46557867  0.94953135  0.95520992     0.32400
O811        O  0.47633394  0.96058608  0.96842676    -1.30900
O812        O  0.50238996  0.53137138  0.09467117    -0.86600
O813        O  0.49714159  0.52894686  0.90730758    -0.88100
O814        O  0.07567760  0.99033975  0.05597225    -0.86700
O815        O  0.42665135  0.98455871  0.05410571    -0.86800
O816        O  0.42741881  0.98685222  0.94870344    -0.84500
O817        O  0.07624692  0.98559699  0.94847462    -0.86300
O818        O  0.04207299  0.56064460  0.99809663    -0.86700
O819        O  0.45699252  0.55827730  0.99859244    -0.86100
O820        O  0.07493993  0.53031536  0.99922028    -0.87200
O821        O  0.42584764  0.52687573  0.00071918    -0.86300
O822        O  0.04385442  0.98937568  0.09641302    -0.86700
O823        O  0.04583691  0.48867601  0.90735543    -0.86500
O824        O  0.45846834  0.48533024  0.90759747    -0.86100
O825        O  0.45669227  0.99005318  0.09512865    -0.86500
O826        O  0.49865313  0.56052091  0.05306962    -0.86800
O827        O  0.49937072  0.55945401  0.94743735    -0.88200
Zr828      Zr  0.50082630  0.98864917  0.06939824     2.83100
Zr829      Zr  0.50204754  0.98674589  0.93398537     2.83500
Zr830      Zr  0.05435600  0.98832583  0.00215609     2.84100
Zr831      Zr  0.44916124  0.98604786  0.00149083     2.83400
Zr832      Zr  0.50024875  0.53840275  0.00056481     2.84200
O833        O  0.47475698  0.51204170  0.96739808    -1.08700
O834        O  0.02725870  0.51419525  0.03506896    -1.08200
C835        C  0.50078817  0.55462643  0.08373633     1.06400
C836        C  0.49700119  0.55253420  0.91720087     1.09000
C837        C  0.06807575  0.99017904  0.08642537     1.06600
C838        C  0.43280359  0.98765275  0.08452120     1.07000
C839        C  0.43433887  0.48586728  0.91819607     1.06500
C840        C  0.06989325  0.48746095  0.91781672     1.06100
C841        C  0.06640352  0.55358739  0.99759788     1.06500
C842        C  0.43293928  0.55053024  0.99908817     1.06000
H843        H  0.03837524  0.52385341  0.95369526     0.32700
O844        O  0.02770466  0.51310993  0.96751512    -1.29800
H845        H  0.46245956  0.52396152  0.04783493     0.32700
O846        O  0.47391801  0.51318290  0.03483390    -1.31200
N847        N  0.21137015  0.73712065  0.99329007    -0.36800
N848        N  0.25112096  0.69907842  0.98225041    -0.57300
N849        N  0.29113601  0.73814889  0.98186000    -0.36800
N850        N  0.25081082  0.77632260  0.99276674    -0.57300
C851        C  0.19881569  0.71545842  0.00225976     0.26800
C852        C  0.19819102  0.75690384  0.00700013     0.26800
C853        C  0.30592116  0.71683900  0.98604691     0.26800
C854        C  0.30580721  0.75826459  0.99143111     0.26800
C855        C  0.22942888  0.68529991  0.97556149     0.35400
C856        C  0.27184505  0.68555098  0.97077323     0.35400
C857        C  0.22903992  0.79109077  0.99102408     0.35400
C858        C  0.27140471  0.79180596  0.98657720     0.35400
C859        C  0.17762388  0.72150925  0.02253967    -0.22100
C860        C  0.17705480  0.74783871  0.02520895    -0.22100
C861        C  0.33046435  0.72348226  0.99793427    -0.22100
C862        C  0.33047107  0.74971023  0.00109268    -0.22100
C863        C  0.23636873  0.66309915  0.95887125    -0.23100
C864        C  0.26340313  0.66303608  0.95643261    -0.23100
C865        C  0.23577215  0.81611153  0.98337559    -0.23100
C866        C  0.26273226  0.81661675  0.98090221    -0.23100
C867        C  0.20432559  0.69107316  0.98882647    -0.18500
C868        C  0.20383072  0.78285352  0.00089881    -0.18500
C869        C  0.29789310  0.78417256  0.98961814    -0.18500
C870        C  0.29816830  0.69181473  0.97752290    -0.18500
H871        H  0.16342355  0.70840907  0.03305827     0.14400
H872        H  0.16251800  0.75905097  0.03845428     0.14400
H873        H  0.34680400  0.71081320  0.00327134     0.14400
H874        H  0.34684508  0.76113016  0.00939028     0.14400
H875        H  0.22348085  0.64790351  0.95094483     0.12700
H876        H  0.27551229  0.64791212  0.94614710     0.12700
H877        H  0.22274638  0.83247909  0.98130230     0.12700
H878        H  0.27458871  0.83342473  0.97633121     0.12700
H879        H  0.22571170  0.73863562  0.97497898     0.26000
H880        H  0.27313066  0.73917735  0.96987821     0.26000
C881        C  0.49857436  0.71448440  0.22820991     0.86300
C882        C  0.02216940  0.71900702  0.25143573    -0.53900
C883        C  0.02129165  0.74130474  0.26915763     0.09200
C884        C  0.49570865  0.75663108  0.26309191     0.20200
C885        C  0.47524996  0.71517867  0.25215197    -0.54600
C886        C  0.47290647  0.73718501  0.26978594     0.09400
C887        C  0.49590960  0.73920601  0.20785309    -0.54200
C888        C  0.49554404  0.76161436  0.22544686     0.09900
H889        H  0.03781007  0.70520979  0.25526155     0.14400
H890        H  0.49499676  0.77425366  0.27782066     0.00200
H891        H  0.46131850  0.69958816  0.25479205     0.14700
H892        H  0.49449350  0.73873140  0.18125785     0.14500
C893        C  0.24872978  0.53097486  0.27925996     0.86300
C894        C  0.27327782  0.52904012  0.25666695    -0.53900
C895        C  0.27391322  0.00826929  0.23579825     0.09200
C896        C  0.24945161  0.99089244  0.24046648     0.20200
C897        C  0.22510962  0.52921926  0.25649384    -0.54600
C898        C  0.22508443  0.00850753  0.23642034     0.09400
C899        C  0.24981100  0.00503248  0.29740846    -0.54200
C900        C  0.25004007  0.98380404  0.27759054     0.09900
H901        H  0.28951311  0.54235667  0.25859093     0.14400
H902        H  0.24892277  0.97453115  0.22333366     0.00200
H903        H  0.20911337  0.54309591  0.25683155     0.14700
H904        H  0.25200538  0.00341205  0.32380384     0.14500
C905        C  0.49239957  0.71356689  0.77433188     0.86300
C906        C  0.47067046  0.71788408  0.74849247    -0.53900
C907        C  0.47174722  0.74101898  0.73260068     0.09200
C908        C  0.49616552  0.75707480  0.74208115     0.20200
C909        C  0.01751579  0.71632898  0.75334394    -0.54600
C910        C  0.01996495  0.73893796  0.73693206     0.09400
C911        C  0.49093015  0.73766317  0.79601464    -0.54200
C912        C  0.49344746  0.76065780  0.77978968     0.09900
H913        H  0.45566344  0.70405952  0.74251801     0.14400
H914        H  0.49851938  0.77501664  0.72790678     0.00200
H915        H  0.03205166  0.70116658  0.75077830     0.14700
H916        H  0.48722200  0.73632682  0.82225225     0.14500
C917        C  0.25720471  0.53621431  0.73085038     0.86300
C918        C  0.23282739  0.53384704  0.75334104    -0.53900
C919        C  0.22944210  0.01065254  0.76838342     0.09200
C920        C  0.25209954  0.99161591  0.76026665     0.20200
C921        C  0.28038832  0.52887439  0.75280046    -0.54600
C922        C  0.27788807  0.00592794  0.76887131     0.09400
C923        C  0.25379735  0.01323768  0.70723597    -0.54200
C924        C  0.25204223  0.98990361  0.72244285     0.09900
H925        H  0.21857411  0.54911483  0.75611476     0.14400
H926        H  0.25003284  0.97259382  0.77205009     0.00200
H927        H  0.29721190  0.54133733  0.75618099     0.14700
H928        H  0.25237730  0.01504717  0.68074409     0.14500
C929        C  0.08907317  0.99092194  0.11170564     0.01200
C930        C  0.10851104  0.97153484  0.11254393     0.04000
C931        C  0.13007325  0.97350756  0.13402472    -0.12100
C932        C  0.13274759  0.99517563  0.15437804     0.23300
C933        C  0.11277525  0.51408190  0.15451915    -0.12600
C934        C  0.09064485  0.51156815  0.13397714     0.04700
C935        C  0.15660242  0.99803989  0.17538578     0.27100
C936        C  0.15498433  0.99401563  0.20964775    -0.13300
C937        C  0.17739841  0.99719199  0.22944814     0.05200
C938        C  0.20200688  0.00323401  0.21501208    -0.09300
C939        C  0.20371697  0.50684633  0.18068981     0.06000
C940        C  0.18102315  0.50470839  0.16103965    -0.13700
Br941      Br  0.11619196  0.54396829  0.18199703    -0.05700
Br942      Br  0.10490766  0.94149119  0.08549238    -0.00100
Br943      Br  0.17415007  0.99335053  0.27658320     0.00400
Br944      Br  0.18308348  0.51189941  0.11450624    -0.04100
Br945      Br  0.06263302  0.53656727  0.13640237     0.00500
Br946      Br  0.15607733  0.94647406  0.13561542    -0.03400
Br947      Br  0.12194407  0.98416267  0.22953587    -0.04200
Br948      Br  0.23682754  0.51611880  0.16073444    -0.00200
C949        C  0.29724831  0.00259841  0.21331919     0.01200
C950        C  0.30684287  0.97723436  0.20738934     0.04000
C951        C  0.32830591  0.97308513  0.18568259    -0.12100
C952        C  0.34341730  0.99387120  0.17449689     0.23300
C953        C  0.33562712  0.51881658  0.18283011    -0.12600
C954        C  0.31126152  0.52307683  0.19830372     0.04700
C955        C  0.36602488  0.99023624  0.15142678     0.27100
C956        C  0.39039410  0.98064779  0.16248876    -0.13300
C957        C  0.41204479  0.97879020  0.14061533     0.05200
C958        C  0.41022766  0.98897644  0.10832283    -0.09300
C959        C  0.38592597  0.99998171  0.09820898     0.06000
C960        C  0.36367896  0.99892688  0.11880883    -0.13700
Br961      Br  0.35823020  0.54741011  0.17210230    -0.05700
Br962      Br  0.29344663  0.94748418  0.22978553    -0.00100
Br963      Br  0.44344335  0.96128982  0.15516132     0.00400
Br964      Br  0.32978077  0.51019082  0.10256791    -0.04100
Br965      Br  0.29586675  0.55630040  0.19195120     0.00500
Br966      Br  0.33674124  0.93897221  0.17046083    -0.03400
Br967      Br  0.39434015  0.97117101  0.20809348    -0.04200
Br968      Br  0.38284777  0.51936628  0.05781938    -0.00200
C969        C  0.49813502  0.90288645  0.11282156     0.01200
C970        C  0.01749489  0.90020290  0.13740568     0.04000
C971        C  0.01756982  0.87841237  0.15803405    -0.12100
C972        C  0.49791777  0.85959395  0.15481019     0.23300
C973        C  0.47787175  0.86294600  0.13142029    -0.12600
C974        C  0.47789219  0.88453313  0.11067763     0.04700
C975        C  0.49888826  0.83555509  0.17463439     0.27100
C976        C  0.01417165  0.81483468  0.16363309    -0.13300
C977        C  0.01400729  0.79138258  0.18088394     0.05200
C978        C  0.49729208  0.78776348  0.20895289    -0.09300
C979        C  0.48257772  0.80940246  0.22040992     0.06000
C980        C  0.48369549  0.83304340  0.20340666    -0.13700
Br981      Br  0.45091283  0.83727133  0.12691568    -0.05700
Br982      Br  0.04460169  0.92567215  0.14199917    -0.00100
Br983      Br  0.03868956  0.76559438  0.16591033     0.00400
Br984      Br  0.46409932  0.86247518  0.21903587    -0.04100
Br985      Br  0.44948117  0.88930807  0.08004413     0.00500
Br986      Br  0.04529621  0.87352295  0.18963797    -0.03400
Br987      Br  0.03530493  0.81887861  0.12418868    -0.04200
Br988      Br  0.45973788  0.80812539  0.25839864    -0.00200
C989        C  0.50158676  0.57652797  0.10763847     0.01200
C990        C  0.49095912  0.57431029  0.13999222     0.04000
C991        C  0.49123023  0.59550255  0.16159074    -0.12100
C992        C  0.50096530  0.61929038  0.15088099     0.23300
C993        C  0.01159559  0.62167407  0.11904468    -0.12600
C994        C  0.01241309  0.60049982  0.09775851     0.04700
C995        C  0.49963161  0.64232893  0.17239328     0.27100
C996        C  0.47672303  0.65753889  0.17310909    -0.13300
C997        C  0.47635610  0.68102389  0.19034512     0.05200
C998        C  0.49944434  0.69008227  0.20635861    -0.09300
C999        C  0.02323147  0.67643672  0.20000680     0.06000
C1000       C  0.02271387  0.65161968  0.18675185    -0.13700
Br1001     Br  0.02481831  0.65453818  0.10438338    -0.05700
Br1002     Br  0.47412066  0.54322170  0.15487571    -0.00100
Br1003     Br  0.44473325  0.70157389  0.18779442     0.00400
Br1004     Br  0.05452808  0.63121281  0.18523753    -0.04100
Br1005     Br  0.02921500  0.60548433  0.05539840     0.00500
Br1006     Br  0.47822670  0.59227611  0.20609812    -0.03400
Br1007     Br  0.44631459  0.64664230  0.14855784    -0.04200
Br1008     Br  0.05628809  0.69389593  0.19541271    -0.00200
C1009       C  0.09132491  0.90447115  0.01117783     0.01200
C1010       C  0.11487739  0.90672968  0.99266988     0.04000
C1011       C  0.13459260  0.88794950  0.99549796    -0.12100
C1012       C  0.13032950  0.86623748  0.01530402     0.23300
C1013       C  0.10756837  0.86447277  0.03496190    -0.12600
C1014       C  0.08827893  0.88376219  0.03340060     0.04700
C1015       C  0.14842674  0.84412475  0.01281267     0.27100
C1016       C  0.14601740  0.82718678  0.98605782    -0.13300
C1017       C  0.16337310  0.80634388  0.98294580     0.05200
C1018       C  0.18315042  0.80245858  0.00659105    -0.09300
C1019       C  0.18475798  0.81871905  0.03411726     0.06000
C1020       C  0.16764380  0.83978328  0.03699813    -0.13700
Br1021     Br  0.10274492  0.83526886  0.06358477    -0.05700
Br1022     Br  0.11973577  0.93422696  0.96131626    -0.00100
Br1023     Br  0.16042244  0.78349347  0.94593222     0.00400
Br1024     Br  0.17089561  0.86307954  0.07347686    -0.04100
Br1025     Br  0.05841095  0.88192931  0.06288175     0.00500
Br1026     Br  0.16742263  0.89155721  0.97183798    -0.03400
Br1027     Br  0.11918110  0.83294366  0.95334568    -0.04200
Br1028     Br  0.21045799  0.81194346  0.06779108    -0.00200
C1029       C  0.41718028  0.89973694  0.00246469     0.01200
C1030       C  0.39179701  0.90397012  0.01624596     0.04000
C1031       C  0.37229511  0.88511537  0.01362743    -0.12100
C1032       C  0.37839065  0.86121208  0.99956454     0.23300
C1033       C  0.40398296  0.85614558  0.98790627    -0.12600
C1034       C  0.42314304  0.87546136  0.98837115     0.04700
C1035       C  0.35781027  0.84137188  0.99699936     0.27100
C1036       C  0.34864517  0.82879995  0.02553868    -0.13300
C1037       C  0.32784582  0.81132706  0.02330552     0.05200
C1038       C  0.31827294  0.80421590  0.99221325    -0.09300
C1039       C  0.32824356  0.81588344  0.96353914     0.06000
C1040       C  0.34710833  0.83531771  0.96604654    -0.13700
Br1041     Br  0.41275400  0.82240737  0.97144590    -0.05700
Br1042     Br  0.38351443  0.93458182  0.04106861    -0.00100
Br1043     Br  0.31202809  0.79754449  0.06275204     0.00400
Br1044     Br  0.35783243  0.85400781  0.92723101    -0.04100
Br1045     Br  0.45690309  0.86793947  0.96820839     0.00500
Br1046     Br  0.33692708  0.89207916  0.02915390    -0.03400
Br1047     Br  0.36497603  0.83508386  0.06751031    -0.04200
Br1048     Br  0.31604126  0.80508628  0.92093285    -0.00200
C1049       C  0.41209782  0.57049321  0.99718032     0.01200
C1050       C  0.39026259  0.56737445  0.97606395     0.04000
C1051       C  0.37159945  0.58716424  0.97273225    -0.12100
C1052       C  0.37509735  0.61052417  0.98923728     0.23300
C1053       C  0.39670249  0.61375636  0.01031048    -0.12600
C1054       C  0.41471565  0.59358885  0.01506745     0.04700
C1055       C  0.35530249  0.63126415  0.98568867     0.27100
C1056       C  0.35535838  0.64717815  0.95759365    -0.13300
C1057       C  0.33645454  0.66681342  0.95456324     0.05200
C1058       C  0.31775449  0.67073077  0.97978799    -0.09300
C1059       C  0.31789084  0.65495159  0.00794405     0.06000
C1060       C  0.33623347  0.63490392  0.01053503    -0.13700
Br1061     Br  0.40161183  0.64601815  0.03254901    -0.05700
Br1062     Br  0.38607372  0.53680767  0.95001525    -0.00100
Br1063     Br  0.33603350  0.68839110  0.91603145     0.00400
Br1064     Br  0.33492094  0.61197686  0.04780219    -0.04100
Br1065     Br  0.44197603  0.59746212  0.04765984     0.00500
Br1066     Br  0.34094211  0.58241978  0.94561522    -0.03400
Br1067     Br  0.38118131  0.64187569  0.92325376    -0.04200
Br1068     Br  0.29354861  0.66147387  0.04361728    -0.00200
C1069       C  0.08606841  0.57388854  0.99473235     0.01200
C1070       C  0.09417345  0.58260808  0.96348931     0.04000
C1071       C  0.11423737  0.60097774  0.96096839    -0.12100
C1072       C  0.12375534  0.61288321  0.98967434     0.23300
C1073       C  0.11379443  0.60558734  0.02074819    -0.12600
C1074       C  0.09645477  0.58489452  0.02330352     0.04700
C1075       C  0.14461382  0.63257507  0.98775677     0.27100
C1076       C  0.16953509  0.62738512  0.00129617    -0.13300
C1077       C  0.18798392  0.64712645  0.00440467     0.05200
C1078       C  0.18340639  0.67105520  0.98908379    -0.09300
C1079       C  0.15893077  0.67568163  0.97359873     0.06000
C1080       C  0.13909840  0.65701705  0.97476661    -0.13700
Br1081     Br  0.12330845  0.62433844  0.05979122    -0.05700
Br1082     Br  0.07747996  0.56972831  0.92433189    -0.00100
Br1083     Br  0.21839727  0.64166630  0.03188706     0.00400
Br1084     Br  0.10408525  0.66527063  0.95966890    -0.04100
Br1085     Br  0.08786767  0.57092317  0.06586774     0.00500
Br1086     Br  0.12907018  0.60916712  0.91843667    -0.03400
Br1087     Br  0.17847822  0.59308860  0.01540738    -0.04200
Br1088     Br  0.15228733  0.70719375  0.95002039    -0.00200
C1089       C  0.41240398  0.98519038  0.89406048     0.01200
C1090       C  0.41198522  0.50200344  0.86674003     0.04000
C1091       C  0.39015536  0.50235116  0.84544340    -0.12100
C1092       C  0.36803316  0.98694692  0.85214728     0.23300
C1093       C  0.36821008  0.97043543  0.87950803    -0.12600
C1094       C  0.39037457  0.96918203  0.90003178     0.04700
C1095       C  0.34355281  0.99008570  0.83253420     0.27100
C1096       C  0.32663668  0.51085153  0.83910951    -0.13300
C1097       C  0.30411354  0.51486082  0.81980496     0.05200
C1098       C  0.29791212  0.99786745  0.79392506    -0.09300
C1099       C  0.31314605  0.97527110  0.79029470     0.06000
C1100       C  0.33655590  0.97203580  0.80845220    -0.13700
Br1101     Br  0.33726868  0.95056704  0.88994796    -0.05700
Br1102     Br  0.43958047  0.52685287  0.86043686    -0.00100
Br1103     Br  0.28092665  0.54300437  0.83040776     0.00400
Br1104     Br  0.35970185  0.94341990  0.79963483    -0.04100
Br1105     Br  0.38977749  0.94547389  0.93658356     0.00500
Br1106     Br  0.38983853  0.52482407  0.80770431    -0.03400
Br1107     Br  0.33464739  0.53402308  0.87457209    -0.04200
Br1108     Br  0.30171218  0.94781592  0.76257090    -0.00200
C1109       C  0.09224399  0.98908325  0.89330088     0.01200
C1110       C  0.11570451  0.50243322  0.90150811     0.04000
C1111       C  0.13644163  0.50475005  0.87856322    -0.12100
C1112       C  0.13511918  0.99258378  0.84776942     0.23300
C1113       C  0.11244685  0.97852250  0.83966898    -0.12600
C1114       C  0.09083315  0.97732295  0.86181125     0.04700
C1115       C  0.15812702  0.99436976  0.82470280     0.27100
C1116       C  0.15705298  0.51006051  0.79655556    -0.13300
C1117       C  0.17957341  0.51322408  0.77653350     0.05200
C1118       C  0.20467498  0.00432213  0.78743830    -0.09300
C1119       C  0.20558417  0.98932623  0.81653191     0.06000
C1120       C  0.18212085  0.98246899  0.83296565    -0.13700
Br1121     Br  0.11168700  0.95994133  0.79863649    -0.05700
Br1122     Br  0.12063102  0.51821306  0.94401306    -0.00100
Br1123     Br  0.17437621  0.52776723  0.73312532     0.00400
Br1124     Br  0.18270446  0.95713532  0.86761844    -0.04100
Br1125     Br  0.06014116  0.95829574  0.84881101     0.00500
Br1126     Br  0.16711800  0.52491087  0.88938665    -0.03400
Br1127     Br  0.12495440  0.52818169  0.78603977    -0.04200
Br1128     Br  0.23843274  0.98094142  0.83751100    -0.00200
C1129       C  0.49187459  0.68840947  0.79511587     0.01200
C1130       C  0.46850734  0.67377645  0.79988772     0.04000
C1131       C  0.46966618  0.64903169  0.81372436    -0.12100
C1132       C  0.49273095  0.64033243  0.82897716     0.23300
C1133       C  0.01513957  0.65596927  0.82877999    -0.12600
C1134       C  0.01494763  0.67970224  0.81200955     0.04700
C1135       C  0.49207178  0.61688045  0.84996616     0.27100
C1136       C  0.48022005  0.61810782  0.88125762    -0.13300
C1137       C  0.48011168  0.59650563  0.90190115     0.05200
C1138       C  0.49374776  0.57375641  0.89264948    -0.09300
C1139       C  0.00514842  0.57245863  0.86072169     0.06000
C1140       C  0.00369869  0.59378839  0.83931606    -0.13700
Br1141     Br  0.04591862  0.64494004  0.85291422    -0.05700
Br1142     Br  0.43398443  0.68912545  0.79857334    -0.00100
Br1143     Br  0.45956560  0.59856095  0.94192058     0.00400
Br1144     Br  0.01785750  0.59175230  0.79528770    -0.04100
Br1145     Br  0.04611198  0.70059749  0.81624747     0.00500
Br1146     Br  0.43899961  0.62724266  0.81358286    -0.03400
Br1147     Br  0.46456002  0.64990141  0.89629783    -0.04200
Br1148     Br  0.02412606  0.54238172  0.84618070    -0.00200
C1149       C  0.49359195  0.78624145  0.79752665     0.01200
C1150       C  0.48202777  0.80881120  0.78384999     0.04000
C1151       C  0.48448769  0.83265161  0.79998912    -0.12100
C1152       C  0.49415608  0.83376937  0.83229699     0.23300
C1153       C  0.00362163  0.81122911  0.84710861    -0.12600
C1154       C  0.00585981  0.78848971  0.82879361     0.04700
C1155       C  0.49581533  0.85853908  0.85057163     0.27100
C1156       C  0.02074420  0.86878238  0.85812510    -0.13300
C1157       C  0.02296185  0.88869667  0.88126119     0.05200
C1158       C  0.50018237  0.90052224  0.89405268    -0.09300
C1159       C  0.47521972  0.89229484  0.88356028     0.06000
C1160       C  0.47295141  0.87064388  0.86310196    -0.13700
Br1161     Br  0.01380900  0.81154038  0.89287684    -0.05700
Br1162     Br  0.46068334  0.80834608  0.74485127    -0.00100
Br1163     Br  0.05712815  0.89888979  0.89669164     0.00400
Br1164     Br  0.43857473  0.85700947  0.85372387    -0.04100
Br1165     Br  0.02953915  0.76269486  0.84565914     0.00500
Br1166     Br  0.47568574  0.86406933  0.77734546    -0.03400
Br1167     Br  0.05185075  0.85538584  0.83668943    -0.04200
Br1168     Br  0.44414379  0.91063161  0.89757622    -0.00200
C1169       C  0.33654966  0.76332734  0.60891004     0.01200
C1170       C  0.34428700  0.78555512  0.62597631     0.04000
C1171       C  0.36664440  0.78489367  0.64655252    -0.12100
C1172       C  0.38065011  0.76175178  0.65120859     0.23300
C1173       C  0.37221427  0.73940969  0.63508968    -0.12600
C1174       C  0.35099978  0.74043628  0.61305006     0.04700
C1175       C  0.40442002  0.76049947  0.67263524     0.27100
C1176       C  0.42985421  0.76010275  0.65848719    -0.13300
C1177       C  0.45215566  0.75519867  0.67815788     0.05200
C1178       C  0.44916057  0.75028726  0.71211351    -0.09300
C1179       C  0.42384940  0.75295749  0.72658985     0.06000
C1180       C  0.40159019  0.75756759  0.70688446    -0.13700
Br1181     Br  0.38955510  0.70715984  0.64375860    -0.05700
Br1182     Br  0.32493941  0.81706839  0.62002615    -0.00100
Br1183     Br  0.48654919  0.75486577  0.65819782     0.00400
Br1184     Br  0.36694097  0.75874249  0.72656691    -0.04100
Br1185     Br  0.34227080  0.71046872  0.58771910     0.00500
Br1186     Br  0.37843925  0.81564127  0.66798596    -0.03400
Br1187     Br  0.43385805  0.76524591  0.61172908    -0.04200
Br1188     Br  0.41962211  0.75211936  0.77375770    -0.00200
C1189       C  0.15702523  0.76063233  0.61240993     0.01200
C1190       C  0.13371437  0.77485549  0.60629265     0.04000
C1191       C  0.11172096  0.77247645  0.62733546    -0.12100
C1192       C  0.11286802  0.75640197  0.65510879     0.23300
C1193       C  0.13630287  0.74288583  0.66195742    -0.12600
C1194       C  0.15825466  0.74484059  0.64065735     0.04700
C1195       C  0.08885630  0.75243760  0.67582296     0.27100
C1196       C  0.08340649  0.76851346  0.70282023    -0.13300
C1197       C  0.06072538  0.76449373  0.72240056     0.05200
C1198       C  0.04321872  0.74430124  0.71512109    -0.09300
C1199       C  0.04893786  0.72812383  0.68802564     0.06000
C1200       C  0.07137712  0.73248517  0.66825348    -0.13700
Br1201     Br  0.13775243  0.72062330  0.69979693    -0.05700
Br1202     Br  0.13157516  0.79805953  0.56932490    -0.00100
Br1203     Br  0.05503973  0.78567556  0.76050589     0.00400
Br1204     Br  0.07825042  0.71127423  0.63028031    -0.04100
Br1205     Br  0.18901845  0.72401225  0.64894701     0.00500
Br1206     Br  0.07937917  0.79034390  0.61740043    -0.03400
Br1207     Br  0.10732941  0.79594993  0.71295199    -0.04200
Br1208     Br  0.02621412  0.69976518  0.67750505    -0.00200
C1209       C  0.26043395  0.56300657  0.71438333     0.01200
C1210       C  0.25110907  0.58577541  0.73005339     0.04000
C1211       C  0.24768499  0.60855430  0.71187454    -0.12100
C1212       C  0.25704941  0.61024543  0.67939479     0.23300
C1213       C  0.27113259  0.58950385  0.66590123    -0.12600
C1214       C  0.27333123  0.56619885  0.68341193     0.04700
C1215       C  0.25290795  0.63403000  0.65965371     0.27100
C1216       C  0.23255835  0.63499353  0.63633171    -0.13300
C1217       C  0.22966384  0.65655851  0.61581131     0.05200
C1218       C  0.24758954  0.67711187  0.61773307    -0.09300
C1219       C  0.26673428  0.67697748  0.64284574     0.06000
C1220       C  0.26946915  0.65541422  0.66358438    -0.13700
Br1221     Br  0.28771937  0.59342996  0.62328775    -0.05700
Br1222     Br  0.24786792  0.58831604  0.77732296    -0.00100
Br1223     Br  0.20008728  0.65851257  0.58632845     0.00400
Br1224     Br  0.29645907  0.65473013  0.69677224    -0.04100
Br1225     Br  0.29769015  0.54102499  0.66649310     0.00500
Br1226     Br  0.22995122  0.63761193  0.73141191    -0.03400
Br1227     Br  0.20888773  0.60639721  0.63221517    -0.04200
Br1228     Br  0.28979289  0.70581815  0.64859468    -0.00200
C1229       C  0.25102251  0.96525174  0.70381464     0.01200
C1230       C  0.27357723  0.95629149  0.68678950     0.04000
C1231       C  0.27307686  0.93263087  0.67020423    -0.12100
C1232       C  0.24933926  0.91888073  0.66751063     0.23300
C1233       C  0.22646727  0.92842695  0.68308493    -0.12600
C1234       C  0.22766350  0.95070947  0.70257936     0.04700
C1235       C  0.24819080  0.89554174  0.64628776     0.27100
C1236       C  0.25061303  0.89816424  0.61202967    -0.13300
C1237       C  0.25262768  0.87640541  0.59179845     0.05200
C1238       C  0.24804992  0.85136879  0.60489957    -0.09300
C1239       C  0.24439228  0.84901264  0.63959864     0.06000
C1240       C  0.24569264  0.87087943  0.66006712    -0.13700
Br1241     Br  0.19305756  0.91199901  0.67575814    -0.05700
Br1242     Br  0.30551711  0.97611967  0.68609412    -0.00100
Br1243     Br  0.26445244  0.88231344  0.54698945     0.00400
Br1244     Br  0.24441787  0.86715486  0.70733706    -0.04100
Br1245     Br  0.19685654  0.96126524  0.72663713     0.00500
Br1246     Br  0.30499583  0.91912721  0.65071230    -0.03400
Br1247     Br  0.25083675  0.93206274  0.59264711    -0.04200
Br1248     Br  0.23696344  0.81647870  0.66044203    -0.00200
C1249       C  0.42898729  0.57570442  0.48682672     0.01200
C1250       C  0.42869030  0.58891482  0.51706390     0.04000
C1251       C  0.41112579  0.60940921  0.52183179    -0.12100
C1252       C  0.39258876  0.61537654  0.49735213     0.23300
C1253       C  0.39211495  0.60137164  0.46777909    -0.12600
C1254       C  0.41088004  0.58213613  0.46207714     0.04700
C1255       C  0.37381192  0.63669819  0.50208826     0.27100
C1256       C  0.35107097  0.63312447  0.52134910    -0.13300
C1257       C  0.33220120  0.65278474  0.52378578     0.05200
C1258       C  0.33545642  0.67576866  0.50552539    -0.09300
C1259       C  0.35852101  0.67913792  0.48620133     0.06000
C1260       C  0.37789259  0.65990485  0.48532152    -0.13700
Br1261     Br  0.36583434  0.60874278  0.43496916    -0.05700
Br1262     Br  0.45214418  0.57873139  0.55194370    -0.00100
Br1263     Br  0.30248793  0.64785725  0.55306495     0.00400
Br1264     Br  0.40988288  0.66478632  0.46011365    -0.04100
Br1265     Br  0.41236573  0.56510118  0.42002668     0.00500
Br1266     Br  0.41298390  0.62987731  0.56121700    -0.03400
Br1267     Br  0.34546187  0.60076668  0.54341457    -0.04200
Br1268     Br  0.36319811  0.70872593  0.45816912    -0.00200
C1269       C  0.06411647  0.57498463  0.48162294     0.01200
C1270       C  0.07216945  0.58072277  0.51387125     0.04000
C1271       C  0.09225052  0.59860806  0.51905430    -0.12100
C1272       C  0.10271530  0.61248335  0.49221304     0.23300
C1273       C  0.09348699  0.60776474  0.46010068    -0.12600
C1274       C  0.07497746  0.58833262  0.45470316     0.04700
C1275       C  0.12326015  0.63212262  0.49763068     0.27100
C1276       C  0.11680825  0.65532439  0.51339290    -0.13300
C1277       C  0.13634450  0.67381493  0.51884550     0.05200
C1278       C  0.16184769  0.67056563  0.50512269    -0.09300
C1279       C  0.16793652  0.64744128  0.48829716     0.06000
C1280       C  0.14908843  0.62790040  0.48609959    -0.13700
Br1281     Br  0.10569210  0.62837239  0.42361008    -0.05700
Br1282     Br  0.05537568  0.56414977  0.55093284    -0.00100
Br1283     Br  0.12798419  0.70268227  0.54678037     0.00400
Br1284     Br  0.15848099  0.59537838  0.46641237    -0.04100
Br1285     Br  0.06438884  0.57996993  0.41054454     0.00500
Br1286     Br  0.10564165  0.60367749  0.56288382    -0.03400
Br1287     Br  0.08076692  0.66235155  0.52601399    -0.04200
Br1288     Br  0.20099669  0.64257819  0.46528080    -0.00200
C1289       C  0.15562971  0.84105779  0.49965082     0.01200
C1290       C  0.15924929  0.86438095  0.51678962     0.04000
C1291       C  0.14014456  0.88377747  0.51500081    -0.12100
C1292       C  0.11695193  0.87971156  0.49720687     0.23300
C1293       C  0.11231698  0.85597990  0.48211328    -0.12600
C1294       C  0.13185250  0.83687652  0.48248502     0.04700
C1295       C  0.09811999  0.90095419  0.49270555     0.27100
C1296       C  0.07995496  0.90708375  0.51777092    -0.13300
C1297       C  0.06251172  0.92769018  0.51349116     0.05200
C1298       C  0.06241809  0.94131808  0.48352628    -0.09300
C1299       C  0.08057964  0.93517526  0.45847714     0.06000
C1300       C  0.09876359  0.91527936  0.46330614    -0.13700
Br1301     Br  0.07900901  0.84987427  0.46095006    -0.05700
Br1302     Br  0.18962399  0.86996333  0.54415892    -0.00100
Br1303     Br  0.03903562  0.93761079  0.54876316     0.00400
Br1304     Br  0.12471787  0.90769748  0.42980286    -0.04100
Br1305     Br  0.12619910  0.80604000  0.45732378     0.00500
Br1306     Br  0.14566749  0.91613156  0.53686423    -0.03400
Br1307     Br  0.07886706  0.88703629  0.55766872    -0.04200
Br1308     Br  0.08024144  0.95386586  0.41749355    -0.00200
C1309       C  0.42750214  0.94203281  0.47824497     0.01200
C1310       C  0.41777082  0.93644416  0.51003307     0.04000
C1311       C  0.39855208  0.91752791  0.51426598    -0.12100
C1312       C  0.39028791  0.90305611  0.48703230     0.23300
C1313       C  0.40108755  0.90766647  0.45556647    -0.12600
C1314       C  0.41891215  0.92779571  0.45096274     0.04700
C1315       C  0.36949372  0.88365409  0.49106692     0.27100
C1316       C  0.37492854  0.86046569  0.50730936    -0.13300
C1317       C  0.35497861  0.84226153  0.51147021     0.05200
C1318       C  0.33014576  0.84602662  0.49640946    -0.09300
C1319       C  0.32517635  0.86908768  0.47899290     0.06000
C1320       C  0.34439452  0.88828470  0.47784739    -0.13700
Br1321     Br  0.39158426  0.88617733  0.41887934    -0.05700
Br1322     Br  0.43075271  0.95472708  0.54785167    -0.00100
Br1323     Br  0.36205072  0.81301291  0.53935418     0.00400
Br1324     Br  0.33655548  0.92102061  0.45769395    -0.04100
Br1325     Br  0.43154333  0.93589697  0.40733984     0.00500
Br1326     Br  0.38328140  0.91175873  0.55728004    -0.03400
Br1327     Br  0.41002768  0.85331252  0.52309088    -0.04200
Br1328     Br  0.29333134  0.87423867  0.45397949    -0.00200
C1329       C  0.15604013  0.75356706  0.39657427     0.01200
C1330       C  0.15017505  0.77489298  0.37653346     0.04000
C1331       C  0.12729145  0.77503234  0.35710549    -0.12100
C1332       C  0.11090223  0.75332366  0.35620155     0.23300
C1333       C  0.11726248  0.73163917  0.37529237    -0.12600
C1334       C  0.13946845  0.73192579  0.39588009     0.04700
C1335       C  0.08779280  0.75278804  0.33382875     0.27100
C1336       C  0.06224009  0.75798566  0.34570334    -0.13300
C1337       C  0.04031015  0.75638696  0.32449638     0.05200
C1338       C  0.04386200  0.74914414  0.29106671    -0.09300
C1339       C  0.07001658  0.74735842  0.27886657     0.06000
C1340       C  0.09163950  0.74791150  0.30023416    -0.13700
Br1341     Br  0.09550964  0.70150269  0.37300295    -0.05700
Br1342     Br  0.17311509  0.80420207  0.37625233    -0.00100
Br1343     Br  0.00636316  0.76566988  0.34203310     0.00400
Br1344     Br  0.12678553  0.74156660  0.28356992    -0.04100
Br1345     Br  0.14742924  0.70237291  0.42267792     0.00500
Br1346     Br  0.11788070  0.80517479  0.33222879    -0.03400
Br1347     Br  0.05758040  0.76711292  0.39137340    -0.04200
Br1348     Br  0.07708709  0.74822619  0.23252065    -0.00200
C1349       C  0.33519260  0.75562632  0.39411615     0.01200
C1350       C  0.33751063  0.73434392  0.37291172     0.04000
C1351       C  0.35985362  0.73155186  0.35243983    -0.12100
C1352       C  0.38022822  0.74980207  0.35327630     0.23300
C1353       C  0.37778883  0.77124240  0.37405503    -0.12600
C1354       C  0.35531946  0.77426803  0.39422384     0.04700
C1355       C  0.40409615  0.74659917  0.33205361     0.27100
C1356       C  0.42640706  0.73342748  0.34388879    -0.13300
C1357       C  0.44876172  0.73008345  0.32350412     0.05200
C1358       C  0.44952516  0.74111196  0.29172212    -0.09300
C1359       C  0.42615644  0.75191896  0.27892682     0.06000
C1360       C  0.40392739  0.75550016  0.29934864    -0.13700
Br1361     Br  0.40556656  0.79629141  0.37506841    -0.05700
Br1362     Br  0.31104617  0.70798107  0.37345616    -0.00100
Br1363     Br  0.47657977  0.70727911  0.33738902     0.00400
Br1364     Br  0.37277379  0.77197014  0.28235023    -0.04100
Br1365     Br  0.35200202  0.80436981  0.42150090     0.00500
Br1366     Br  0.36290980  0.70239550  0.32359823    -0.03400
Br1367     Br  0.42584763  0.71924716  0.38772925    -0.04200
Br1368     Br  0.42289898  0.75811223  0.23232527    -0.00200
C1369       C  0.25306104  0.95725419  0.29193220     0.01200
C1370       C  0.27205761  0.95269398  0.31675766     0.04000
C1371       C  0.27101767  0.93026261  0.33609563    -0.12100
C1372       C  0.25340868  0.91050322  0.32812448     0.23300
C1373       C  0.23700000  0.91342222  0.30053939    -0.12600
C1374       C  0.23628996  0.93681195  0.28298000     0.04700
C1375       C  0.25081415  0.88741514  0.34980832     0.27100
C1376       C  0.26892351  0.86688336  0.34775317    -0.13300
C1377       C  0.26627267  0.84534651  0.36863555     0.05200
C1378       C  0.24528894  0.84398882  0.39153610    -0.09300
C1379       C  0.22702893  0.86451395  0.39326387     0.06000
C1380       C  0.22983549  0.88604686  0.37257912    -0.13700
Br1381     Br  0.21454656  0.88543735  0.28789093    -0.05700
Br1382     Br  0.30132759  0.97577912  0.32235793    -0.00100
Br1383     Br  0.29265282  0.81867806  0.36756836     0.00400
Br1384     Br  0.20513874  0.91416865  0.37582562    -0.04100
Br1385     Br  0.21171659  0.94011658  0.24740622     0.00500
Br1386     Br  0.29237453  0.92746636  0.37501689    -0.03400
Br1387     Br  0.29760875  0.86847039  0.31658357    -0.04200
Br1388     Br  0.19784882  0.86335375  0.42390721    -0.00200
C1389       C  0.24703298  0.55541969  0.30087459     0.01200
C1390       C  0.23471683  0.55574087  0.33251806     0.04000
C1391       C  0.23613704  0.57779573  0.35257317    -0.12100
C1392       C  0.24820473  0.60022949  0.34074324     0.23300
C1393       C  0.25699934  0.60113494  0.30798435    -0.12600
C1394       C  0.25428379  0.57960618  0.28758450     0.04700
C1395       C  0.24856664  0.62388423  0.36121750     0.27100
C1396       C  0.22918113  0.64298788  0.35681240    -0.13300
C1397       C  0.22973669  0.66561711  0.37569103     0.05200
C1398       C  0.24907173  0.66882287  0.40017756    -0.09300
C1399       C  0.26860655  0.64969964  0.40424117     0.06000
C1400       C  0.26842908  0.62746095  0.38470146    -0.13700
Br1401     Br  0.27170511  0.63244584  0.29053124    -0.05700
Br1402     Br  0.21011921  0.52951427  0.34592536    -0.00100
Br1403     Br  0.20343092  0.69166625  0.36835887     0.00400
Br1404     Br  0.29537992  0.60169716  0.39010764    -0.04100
Br1405     Br  0.25297074  0.58592411  0.24103406     0.00500
Br1406     Br  0.22006658  0.57805493  0.39575282    -0.03400
Br1407     Br  0.20132122  0.63761115  0.32550231    -0.04200
Br1408     Br  0.29649560  0.65424655  0.43566833    -0.00200
O1409       O  0.74713919  0.21387739  0.41133605    -0.86700
O1410       O  0.74698348  0.22103776  0.60048084    -0.86800
O1411       O  0.79042521  0.18771383  0.50532884    -0.88500
O1412       O  0.70593400  0.18527777  0.50939774    -0.87200
O1413       O  0.67301407  0.21488107  0.50427505    -0.86800
O1414       O  0.82139227  0.21930381  0.50534489    -0.88200
O1415       O  0.74799462  0.18915310  0.56162394    -0.86700
O1416       O  0.74793413  0.18518981  0.45426738    -0.86300
Zr1417     Zr  0.74747282  0.20804267  0.50654760     2.84300
O1418       O  0.72064040  0.23408594  0.53924544    -1.08200
O1419       O  0.77271229  0.23300717  0.47049300    -1.09000
C1420       C  0.74793602  0.19086372  0.42330764     1.06500
C1421       C  0.74749855  0.19721585  0.59169833     1.06400
C1422       C  0.81441916  0.19557692  0.50550074     1.09400
C1423       C  0.68150483  0.19161466  0.50669871     1.07200
H1424       H  0.78476124  0.22539059  0.55206261     0.32700
O1425       O  0.77342146  0.23531684  0.53823263    -1.29200
H1426       H  0.70966040  0.21993738  0.45844412     0.32400
O1427       O  0.72035519  0.23149761  0.47118532    -1.30900
O1428       O  0.74895389  0.30557838  0.59383380    -0.86600
O1429       O  0.74468139  0.29935756  0.40716972    -0.88100
O1430       O  0.82147698  0.26332577  0.55427471    -0.86700
O1431       O  0.67172399  0.25725968  0.55742418    -0.86800
O1432       O  0.67086352  0.25516065  0.45124045    -0.86500
O1433       O  0.82058587  0.25817472  0.44907510    -0.86300
O1434       O  0.78565381  0.33244014  0.50026715    -0.86700
O1435       O  0.70057307  0.32929316  0.49710375    -0.86100
O1436       O  0.81825286  0.30229002  0.49712198    -0.87200
O1437       O  0.66981567  0.29777324  0.50297331    -0.86300
O1438       O  0.79067136  0.26380582  0.59595047    -0.86700
O1439       O  0.78932373  0.25650210  0.40853900    -0.86500
O1440       O  0.70178859  0.25552793  0.40968140    -0.86100
O1441       O  0.70281600  0.26309881  0.59745844    -0.86500
O1442       O  0.74296586  0.33338622  0.55144146    -0.86800
O1443       O  0.74412991  0.33063315  0.44678670    -0.88200
Zr1444     Zr  0.74656962  0.26201972  0.57080599     2.83100
Zr1445     Zr  0.74557456  0.25709794  0.43523548     2.83500
Zr1446     Zr  0.79849627  0.26029544  0.50211800     2.84100
Zr1447     Zr  0.69324398  0.25719561  0.50394967     2.83400
Zr1448     Zr  0.74396143  0.30991808  0.50004114     2.84200
O1449       O  0.71812415  0.28276704  0.46818840    -1.08700
O1450       O  0.77188376  0.28680106  0.53459877    -1.08200
C1451       C  0.74659740  0.32854392  0.58212334     1.06400
C1452       C  0.74442892  0.32313643  0.41662259     1.09000
C1453       C  0.81468074  0.26394981  0.58489989     1.06600
C1454       C  0.67873549  0.26040169  0.58759498     1.07000
C1455       C  0.67778373  0.25481858  0.42063519     1.06500
C1456       C  0.81347453  0.25696830  0.41871801     1.06100
C1457       C  0.81000541  0.32563745  0.49809172     1.06500
C1458       C  0.67666791  0.32138153  0.49977874     1.06000
H1459       H  0.78201899  0.29492821  0.45309438     0.32700
O1460       O  0.77135454  0.28431360  0.46733135    -1.29800
H1461       H  0.70724342  0.29619629  0.54872444     0.32700
O1462       O  0.71854222  0.28517542  0.53582862    -1.31200
N1463       N  0.53645175  0.00842712  0.47332149    -0.36800
N1464       N  0.99525228  0.46947089  0.47381618    -0.57300
N1465       N  0.95513522  0.00891775  0.47349187    -0.36800
N1466       N  0.99636462  0.04780993  0.47618201    -0.57300
C1467       C  0.55080511  0.48743740  0.48102840     0.26800
C1468       C  0.55162027  0.02904901  0.47954069     0.26800
C1469       C  0.93965612  0.48812608  0.47734930     0.26800
C1470       C  0.94045571  0.02966424  0.48143563     0.26800
C1471       C  0.51657356  0.45407833  0.47176976     0.35400
C1472       C  0.97409273  0.45422467  0.47021939     0.35400
C1473       C  0.51755688  0.06308802  0.47261095     0.35400
C1474       C  0.97506427  0.06327113  0.47495479     0.35400
C1475       C  0.57563687  0.49476085  0.49123071    -0.22100
C1476       C  0.57626617  0.02097815  0.48990893    -0.22100
C1477       C  0.91442928  0.49592331  0.48609878    -0.22100
C1478       C  0.91505598  0.02204753  0.48923425    -0.22100
C1479       C  0.50897855  0.42895476  0.46666168    -0.23100
C1480       C  0.98208329  0.42900351  0.46595432    -0.23100
C1481       C  0.50966166  0.08837810  0.46907452    -0.23100
C1482       C  0.98274072  0.08848461  0.47047082    -0.23100
C1483       C  0.54261899  0.46174748  0.47805618    -0.18500
C1484       C  0.54388997  0.05498899  0.47637500    -0.18500
C1485       C  0.94889286  0.05542878  0.48068636    -0.18500
C1486       C  0.94766683  0.46225216  0.47393079    -0.18500
H1487       H  0.59172188  0.48248659  0.49878965     0.14400
H1488       H  0.59292799  0.03271088  0.49641789     0.14400
H1489       H  0.89738302  0.48403805  0.49052820     0.14400
H1490       H  0.89857099  0.03406059  0.49629978     0.14400
H1491       H  0.52147875  0.41218080  0.46479285     0.12700
H1492       H  0.96989007  0.41220324  0.46347259     0.12700
H1493       H  0.52198819  0.10513031  0.46673761     0.12700
H1494       H  0.97026820  0.10530435  0.46918335     0.12700
H1495       H  0.51827885  0.00860366  0.46187597     0.26000
H1496       H  0.97399010  0.00909978  0.46374456     0.26000
O1497       O  0.00216395  0.44445032  0.90818464    -0.86700
O1498       O  0.99982567  0.44702054  0.09737128    -0.86800
O1499       O  0.54632655  0.41561730  0.00525782    -0.88500
O1500       O  0.96149895  0.41390520  0.00526055    -0.87200
O1501       O  0.92897130  0.44383890  0.00015717    -0.86800
O1502       O  0.57704243  0.44752396  0.00734419    -0.88200
O1503       O  0.00126714  0.41602343  0.05729555    -0.86700
O1504       O  0.00300149  0.41420570  0.94945107    -0.86300
Zr1505     Zr  0.00324727  0.43603615  0.00291196     2.84300
O1506       O  0.97584381  0.46153006  0.03591136    -1.08200
O1507       O  0.52916342  0.46173193  0.96845996    -1.09000
C1508       C  0.00219832  0.42110908  0.91885764     1.06500
C1509       C  0.99994836  0.42344091  0.08761230     1.06400
C1510       C  0.57017522  0.42378489  0.00761249     1.09400
C1511       C  0.93716519  0.42050521  0.00271860     1.07200
H1512       H  0.53920279  0.45250270  0.05061324     0.32700
O1513       O  0.52824408  0.46278493  0.03645056    -1.29200
H1514       H  0.96557828  0.44953066  0.95520912     0.32400
O1515       O  0.97633354  0.46058549  0.96842598    -1.30900
O1516       O  0.00239016  0.03137127  0.09467293    -0.86600
O1517       O  0.99714145  0.02894781  0.90730899    -0.88100
O1518       O  0.57567685  0.49033973  0.05597168    -0.86700
O1519       O  0.92665058  0.48455918  0.05410468    -0.86800
O1520       O  0.92741871  0.48685156  0.94870199    -0.84500
O1521       O  0.57624648  0.48559636  0.94847378    -0.86300
O1522       O  0.54207361  0.06064462  0.99809690    -0.86700
O1523       O  0.95699366  0.05827837  0.99859552    -0.86100
O1524       O  0.57494057  0.03031541  0.99922001    -0.87200
O1525       O  0.92584880  0.02687668  0.00072112    -0.86300
O1526       O  0.54385358  0.48937597  0.09641235    -0.86700
O1527       O  0.54583727  0.98867718  0.90735619    -0.86500
O1528       O  0.95846827  0.98533147  0.90759874    -0.86100
O1529       O  0.95669167  0.49005372  0.09512740    -0.86500
O1530       O  0.99865390  0.06052076  0.05307122    -0.86800
O1531       O  0.99937102  0.05945453  0.94743911    -0.88200
Zr1532     Zr  0.00082567  0.48864905  0.06939714     2.83100
Zr1533     Zr  0.00204728  0.48674517  0.93398462     2.83500
Zr1534     Zr  0.55435560  0.48832558  0.00215527     2.84100
Zr1535     Zr  0.94916071  0.48604739  0.00148976     2.83400
Zr1536     Zr  0.00024938  0.03840296  0.00056631     2.84200
O1537       O  0.97475744  0.01204228  0.96739934    -1.08700
O1538       O  0.52725941  0.01419551  0.03507020    -1.08200
C1539       C  0.00078860  0.05462632  0.08373794     1.06400
C1540       C  0.99700109  0.05253509  0.91720256     1.09000
C1541       C  0.56807495  0.49017926  0.08642480     1.06600
C1542       C  0.93280294  0.48765344  0.08452012     1.07000
C1543       C  0.93433882  0.98586845  0.91819756     1.06500
C1544       C  0.56989365  0.98746193  0.91781740     1.06100
C1545       C  0.56640410  0.05358739  0.99759750     1.06500
C1546       C  0.93294047  0.05053125  0.99909095     1.06000
H1547       H  0.53837554  0.02385393  0.95369610     0.32700
O1548       O  0.52770500  0.01311037  0.96751604    -1.29800
H1549       H  0.96246024  0.02396153  0.04783646     0.32700
O1550       O  0.97391863  0.01318304  0.03483529    -1.31200
N1551       N  0.71136997  0.23712037  0.99329265    -0.36800
N1552       N  0.75112070  0.19907804  0.98225280    -0.57300
N1553       N  0.79113568  0.23814847  0.98186269    -0.36800
N1554       N  0.75081064  0.27632229  0.99276969    -0.57300
C1555       C  0.69881534  0.21545808  0.00226164     0.26800
C1556       C  0.69819081  0.25690342  0.00700303     0.26800
C1557       C  0.80592085  0.21683861  0.98604971     0.26800
C1558       C  0.80580704  0.25826424  0.99143317     0.26800
C1559       C  0.72942864  0.18529971  0.97556327     0.35400
C1560       C  0.77184486  0.18555058  0.97077588     0.35400
C1561       C  0.72903973  0.29109048  0.99102757     0.35400
C1562       C  0.77140446  0.29180566  0.98657990     0.35400
C1563       C  0.67762336  0.22150871  0.02254139    -0.22100
C1564       C  0.67705438  0.24783812  0.02521132    -0.22100
C1565       C  0.83046415  0.22348194  0.99793662    -0.22100
C1566       C  0.83047101  0.24970991  0.00109439    -0.22100
C1567       C  0.73636859  0.16309903  0.95887289    -0.23100
C1568       C  0.76340303  0.16303581  0.95643486    -0.23100
C1569       C  0.73577187  0.31611130  0.98337929    -0.23100
C1570       C  0.76273194  0.31661652  0.98090545    -0.23100
C1571       C  0.70432522  0.19107303  0.98882780    -0.18500
C1572       C  0.70383056  0.28285315  0.00090224    -0.18500
C1573       C  0.79789292  0.28417221  0.98962003    -0.18500
C1574       C  0.79816805  0.19181430  0.97752586    -0.18500
H1575       H  0.66342285  0.20840844  0.03305944     0.14400
H1576       H  0.66251750  0.25905026  0.03845668     0.14400
H1577       H  0.84680387  0.21081293  0.00327359     0.14400
H1578       H  0.84684523  0.26112984  0.00939133     0.14400
H1579       H  0.72348074  0.14790352  0.95094599     0.12700
H1580       H  0.77551226  0.14791189  0.94614938     0.12700
H1581       H  0.72274608  0.33247887  0.98130636     0.12700
H1582       H  0.77458830  0.33342455  0.97633444     0.12700
H1583       H  0.72571164  0.23863551  0.97498173     0.26000
H1584       H  0.77313025  0.23917690  0.96988111     0.26000
C1585       C  0.99857448  0.21448486  0.22820999     0.86300
C1586       C  0.52216930  0.21900764  0.25143601    -0.53900
C1587       C  0.52129133  0.24130525  0.26915806     0.09200
C1588       C  0.99570823  0.25663135  0.26309234     0.20200
C1589       C  0.97524988  0.21517884  0.25215168    -0.54600
C1590       C  0.97290616  0.23718506  0.26978584     0.09400
C1591       C  0.99590965  0.23920655  0.20785338    -0.54200
C1592       C  0.99554380  0.26161483  0.22544730     0.09900
H1593       H  0.53781003  0.20521051  0.25526190     0.14400
H1594       H  0.99499613  0.27425377  0.27782146     0.00200
H1595       H  0.96131839  0.19958830  0.25479126     0.14700
H1596       H  0.99449346  0.23873201  0.18125815     0.14500
C1597       C  0.74873121  0.03097323  0.27926090     0.86300
C1598       C  0.77327855  0.02903840  0.25666677    -0.53900
C1599       C  0.77391328  0.50827090  0.23579861     0.09200
C1600       C  0.74945170  0.49089383  0.24046592     0.20200
C1601       C  0.72511031  0.02921790  0.25649587    -0.54600
C1602       C  0.72508445  0.50850872  0.23641858     0.09400
C1603       C  0.74980925  0.50503414  0.29740781    -0.54200
C1604       C  0.75003918  0.48380558  0.27759010     0.09900
H1605       H  0.78951405  0.04235478  0.25859026     0.14400
H1606       H  0.74892353  0.47453246  0.22333319     0.00200
H1607       H  0.70911424  0.04309473  0.25683428     0.14700
H1608       H  0.75200266  0.50341394  0.32380334     0.14500
C1609       C  0.99239890  0.21356696  0.77433089     0.86300
C1610       C  0.97066910  0.21788430  0.74849233    -0.53900
C1611       C  0.97174590  0.24101906  0.73260013     0.09200
C1612       C  0.99616478  0.25707450  0.74207942     0.20200
C1613       C  0.51751464  0.21632840  0.75334149    -0.54600
C1614       C  0.51996375  0.23893728  0.73692939     0.09400
C1615       C  0.99093044  0.23766338  0.79601332    -0.54200
C1616       C  0.99344776  0.26065779  0.77978800     0.09900
H1617       H  0.95566172  0.20405988  0.74251867     0.14400
H1618       H  0.99851865  0.27501622  0.72790478     0.00200
H1619       H  0.53205014  0.20116574  0.75077522     0.14700
H1620       H  0.98722277  0.23632729  0.82225105     0.14500
C1621       C  0.75720434  0.03621472  0.73084995     0.86300
C1622       C  0.73282711  0.03384707  0.75334059    -0.53900
C1623       C  0.72944192  0.51065260  0.76838373     0.09200
C1624       C  0.75209911  0.49161572  0.76026687     0.20200
C1625       C  0.78038810  0.02887523  0.75280006    -0.54600
C1626       C  0.77788787  0.50592727  0.76887181     0.09400
C1627       C  0.75379736  0.51323772  0.70723641    -0.54200
C1628       C  0.75204203  0.48990369  0.72244311     0.09900
H1629       H  0.71857344  0.04911455  0.75611407     0.14400
H1630       H  0.75003190  0.47259358  0.77204996     0.00200
H1631       H  0.79721134  0.04133854  0.75618085     0.14700
H1632       H  0.75237743  0.51504729  0.68074453     0.14500
C1633       C  0.58907241  0.49092223  0.11170510     0.01200
C1634       C  0.60851044  0.47153529  0.11254314     0.04000
C1635       C  0.63007289  0.47350820  0.13402355    -0.12100
C1636       C  0.63274734  0.49517633  0.15437673     0.23300
C1637       C  0.61277575  0.01408173  0.15451984    -0.12600
C1638       C  0.59064564  0.01156818  0.13397734     0.04700
C1639       C  0.65660233  0.49804067  0.17538424     0.27100
C1640       C  0.65498448  0.49401611  0.20964615    -0.13300
C1641       C  0.67739867  0.49719233  0.22944636     0.05200
C1642       C  0.70200705  0.50323463  0.21501024    -0.09300
C1643       C  0.70371705  0.00684556  0.18069159     0.06000
C1644       C  0.68102335  0.00470770  0.16104126    -0.13700
Br1645     Br  0.61619243  0.04396820  0.18199758    -0.05700
Br1646     Br  0.60490689  0.44149148  0.08549190    -0.00100
Br1647     Br  0.67415055  0.49335041  0.27658137     0.00400
Br1648     Br  0.68308405  0.01189840  0.11450778    -0.04100
Br1649     Br  0.56263421  0.03656779  0.13640151     0.00500
Br1650     Br  0.65607703  0.44647476  0.13561413    -0.03400
Br1651     Br  0.62194432  0.48416309  0.22953448    -0.04200
Br1652     Br  0.73682771  0.01611778  0.16073633    -0.00200
C1653       C  0.79724886  0.50260023  0.21332021     0.01200
C1654       C  0.80684378  0.47723626  0.20739077     0.04000
C1655       C  0.82830685  0.47308708  0.18568404    -0.12100
C1656       C  0.84341780  0.49387324  0.17449767     0.23300
C1657       C  0.83562709  0.01881446  0.18282993    -0.12600
C1658       C  0.81126137  0.02307491  0.19830312     0.04700
C1659       C  0.86602512  0.49023827  0.15142716     0.27100
C1660       C  0.89039452  0.48065007  0.16248882    -0.13300
C1661       C  0.91204482  0.47879198  0.14061490     0.05200
C1662       C  0.91022720  0.48897751  0.10832206    -0.09300
C1663       C  0.88592536  0.49998265  0.09820848     0.06000
C1664       C  0.86367869  0.49892839  0.11880901    -0.13700
Br1665     Br  0.85823096  0.04740773  0.17210381    -0.05700
Br1666     Br  0.79344782  0.44748615  0.22978736    -0.00100
Br1667     Br  0.94344356  0.46129182  0.15516085     0.00400
Br1668     Br  0.82978134  0.01018892  0.10256729    -0.04100
Br1669     Br  0.79586701  0.05629876  0.19195085     0.00500
Br1670     Br  0.83674275  0.43897409  0.17046303    -0.03400
Br1671     Br  0.89434135  0.47117435  0.20809380    -0.04200
Br1672     Br  0.88284909  0.01936600  0.05782070    -0.00200
C1673       C  0.99813432  0.40288656  0.11282131     0.01200
C1674       C  0.51749371  0.40020364  0.13740619     0.04000
C1675       C  0.51756849  0.37841332  0.15803494    -0.12100
C1676       C  0.99791652  0.35959459  0.15481091     0.23300
C1677       C  0.97787097  0.36294618  0.13142030    -0.12600
C1678       C  0.97789178  0.38453293  0.11067698     0.04700
C1679       C  0.99888714  0.33555573  0.17463510     0.27100
C1680       C  0.51417057  0.31483574  0.16363367    -0.13300
C1681       C  0.51400648  0.29138357  0.18088431     0.05200
C1682       C  0.99729148  0.28776402  0.20895340    -0.09300
C1683       C  0.98257697  0.30940286  0.22041060     0.06000
C1684       C  0.98369453  0.33304389  0.20340747    -0.13700
Br1685     Br  0.95091231  0.33727126  0.12691550    -0.05700
Br1686     Br  0.54460018  0.42567317  0.14200008    -0.00100
Br1687     Br  0.53868853  0.26559553  0.16590969     0.00400
Br1688     Br  0.96409833  0.36247556  0.21903695    -0.04100
Br1689     Br  0.94948177  0.38930670  0.08004178     0.00500
Br1690     Br  0.54529483  0.37352398  0.18963896    -0.03400
Br1691     Br  0.53530354  0.31888000  0.12418902    -0.04200
Br1692     Br  0.95973698  0.30812538  0.25839916    -0.00200
C1693       C  0.00158716  0.07652799  0.10763980     0.01200
C1694       C  0.99095844  0.07431091  0.13999302     0.04000
C1695       C  0.99122985  0.09550326  0.16159136    -0.12100
C1696       C  0.00096602  0.11929069  0.15088171     0.23300
C1697       C  0.51159662  0.12167412  0.11904543    -0.12600
C1698       C  0.51241407  0.10049967  0.09775963     0.04700
C1699       C  0.99963235  0.14232946  0.17239357     0.27100
C1700       C  0.97672375  0.15753939  0.17310903    -0.13300
C1701       C  0.97635677  0.18102456  0.19034461     0.05200
C1702       C  0.99944483  0.19008289  0.20635850    -0.09300
C1703       C  0.52323203  0.17643753  0.20000692     0.06000
C1704       C  0.52271454  0.15162050  0.18675191    -0.13700
Br1705     Br  0.52481961  0.15453799  0.10438363    -0.05700
Br1706     Br  0.97411752  0.04322331  0.15487544    -0.00100
Br1707     Br  0.94473425  0.20157491  0.18779261     0.00400
Br1708     Br  0.55452883  0.13121373  0.18523760    -0.04100
Br1709     Br  0.52921647  0.10548359  0.05539970     0.00500
Br1710     Br  0.97822479  0.09227763  0.20609816    -0.03400
Br1711     Br  0.94631528  0.14664248  0.14855804    -0.04200
Br1712     Br  0.55628880  0.19389663  0.19541382    -0.00200
C1713       C  0.59132452  0.40447068  0.01117800     0.01200
C1714       C  0.61487753  0.40672922  0.99267103     0.04000
C1715       C  0.63459269  0.38794905  0.99549994    -0.12100
C1716       C  0.63032917  0.36623708  0.01530595     0.23300
C1717       C  0.60756755  0.36447238  0.03496293    -0.12600
C1718       C  0.58827801  0.38376166  0.03340062     0.04700
C1719       C  0.64842637  0.34412426  0.01281515     0.27100
C1720       C  0.64601777  0.32718662  0.98605984    -0.13300
C1721       C  0.66337339  0.30634364  0.98294830     0.05200
C1722       C  0.68315014  0.30245811  0.00659421    -0.09300
C1723       C  0.68475714  0.31871837  0.03412068     0.06000
C1724       C  0.66764270  0.33978244  0.03700142    -0.13700
Br1725     Br  0.60274369  0.33526872  0.06358616    -0.05700
Br1726     Br  0.61973672  0.43422648  0.96131757    -0.00100
Br1727     Br  0.66042350  0.28349350  0.94593434     0.00400
Br1728     Br  0.67089317  0.36307795  0.07348116    -0.04100
Br1729     Br  0.55840906  0.38192836  0.06288019     0.00500
Br1730     Br  0.66742333  0.39155666  0.97184120    -0.03400
Br1731     Br  0.61918269  0.33294412  0.95334629    -0.04200
Br1732     Br  0.71045696  0.31194294  0.06779480    -0.00200
C1733       C  0.91718004  0.39973651  0.00246404     0.01200
C1734       C  0.89179716  0.40396931  0.01624659     0.04000
C1735       C  0.87229534  0.38511449  0.01362845    -0.12100
C1736       C  0.87839053  0.36121168  0.99956396     0.23300
C1737       C  0.90398250  0.35614553  0.98790432    -0.12600
C1738       C  0.92314254  0.37546131  0.98836931     0.04700
C1739       C  0.85781027  0.34137142  0.99699924     0.27100
C1740       C  0.84864699  0.32879834  0.02553858    -0.13300
C1741       C  0.82784782  0.31132522  0.02330625     0.05200
C1742       C  0.81827283  0.30421552  0.99221445    -0.09300
C1743       C  0.82824147  0.31588442  0.96354014     0.06000
C1744       C  0.84710661  0.33531840  0.96604700    -0.13700
Br1745     Br  0.91275320  0.32240772  0.97144236    -0.05700
Br1746     Br  0.88351519  0.43458056  0.04107048    -0.00100
Br1747     Br  0.81203349  0.29754003  0.06275339     0.00400
Br1748     Br  0.85782908  0.35400950  0.92723156    -0.04100
Br1749     Br  0.95690219  0.36794002  0.96820518     0.00500
Br1750     Br  0.83692806  0.39207723  0.02915840    -0.03400
Br1751     Br  0.86498005  0.33508118  0.06750915    -0.04200
Br1752     Br  0.81603591  0.30508957  0.92093431    -0.00200
C1753       C  0.91209905  0.07049417  0.99718333     0.01200
C1754       C  0.89026518  0.06737637  0.97606466     0.04000
C1755       C  0.87160210  0.08716614  0.97273291    -0.12100
C1756       C  0.87509860  0.11052511  0.98924063     0.23300
C1757       C  0.89670248  0.11375640  0.01031611    -0.12600
C1758       C  0.91471570  0.09358886  0.01507272     0.04700
C1759       C  0.85530354  0.13126491  0.98569210     0.27100
C1760       C  0.85536056  0.14718023  0.95759831    -0.13300
C1761       C  0.83645608  0.16681486  0.95456751     0.05200
C1762       C  0.81775441  0.17073048  0.97979086    -0.09300
C1763       C  0.81788977  0.15495012  0.00794586     0.06000
C1764       C  0.83623282  0.13490280  0.01053689    -0.13700
Br1765     Br  0.90161011  0.14601705  0.03255796    -0.05700
Br1766     Br  0.88607824  0.03681089  0.95001299    -0.00100
Br1767     Br  0.83603643  0.18839406  0.91603708     0.00400
Br1768     Br  0.83491836  0.11197354  0.04780172    -0.04100
Br1769     Br  0.94197449  0.09746056  0.04766749     0.00500
Br1770     Br  0.84094682  0.08242299  0.94561188    -0.03400
Br1771     Br  0.88118583  0.14188036  0.92326049    -0.04200
Br1772     Br  0.79354592  0.16147051  0.04361793    -0.00200
C1773       C  0.58606879  0.07388853  0.99473154     0.01200
C1774       C  0.59417356  0.08260812  0.96348840     0.04000
C1775       C  0.61423659  0.10097867  0.96096739    -0.12100
C1776       C  0.62375402  0.11288450  0.98967335     0.23300
C1777       C  0.61379344  0.10558839  0.02074722    -0.12600
C1778       C  0.59645478  0.08489487  0.02330264     0.04700
C1779       C  0.64461266  0.13257602  0.98775598     0.27100
C1780       C  0.66953384  0.12738532  0.00129505    -0.13300
C1781       C  0.68798291  0.14712627  0.00440438     0.05200
C1782       C  0.68340581  0.17105534  0.98908413    -0.09300
C1783       C  0.65893036  0.17568242  0.97359896     0.06000
C1784       C  0.63909760  0.15701825  0.97476649    -0.13700
Br1785     Br  0.62330699  0.12433974  0.05979023    -0.05700
Br1786     Br  0.57748134  0.06972679  0.92433098    -0.00100
Br1787     Br  0.71839582  0.14166511  0.03188715     0.00400
Br1788     Br  0.60408452  0.16527263  0.95966929    -0.04100
Br1789     Br  0.58786910  0.07092263  0.06586681     0.00500
Br1790     Br  0.62906912  0.10916871  0.91843573    -0.03400
Br1791     Br  0.67847640  0.09308828  0.01540479    -0.04200
Br1792     Br  0.65228771  0.20719478  0.95002085    -0.00200
C1793       C  0.91240424  0.48518838  0.89405887     0.01200
C1794       C  0.91198439  0.00200692  0.86674329     0.04000
C1795       C  0.89015422  0.00235565  0.84544714    -0.12100
C1796       C  0.86803379  0.48694333  0.85214508     0.23300
C1797       C  0.86821058  0.47043266  0.87950663    -0.12600
C1798       C  0.89037485  0.46918014  0.90003080     0.04700
C1799       C  0.84355304  0.49008279  0.83253299     0.27100
C1800       C  0.82663480  0.01085325  0.83911117    -0.13300
C1801       C  0.80411178  0.01486157  0.81980604     0.05200
C1802       C  0.79791188  0.49786621  0.79392535    -0.09300
C1803       C  0.81314378  0.47526842  0.79029622     0.06000
C1804       C  0.83655407  0.47203238  0.80845260    -0.13700
Br1805     Br  0.83726948  0.45056386  0.88994673    -0.05700
Br1806     Br  0.93957936  0.02685685  0.86044180    -0.00100
Br1807     Br  0.78092244  0.04300307  0.83040948     0.00400
Br1808     Br  0.85969765  0.44341452  0.79963604    -0.04100
Br1809     Br  0.88977749  0.44547330  0.93658398     0.00500
Br1810     Br  0.88983627  0.02483140  0.80771087    -0.03400
Br1811     Br  0.83464358  0.03402487  0.87457432    -0.04200
Br1812     Br  0.80170634  0.44781205  0.76257661    -0.00200
C1813       C  0.59224345  0.48908227  0.89330001     0.01200
C1814       C  0.61570546  0.00243333  0.90150933     0.04000
C1815       C  0.63644259  0.00475025  0.87856445    -0.12100
C1816       C  0.63511830  0.49258329  0.84776828     0.23300
C1817       C  0.61244640  0.47852124  0.83966830    -0.12600
C1818       C  0.59083291  0.47732122  0.86181084     0.04700
C1819       C  0.65812610  0.49436936  0.82470166     0.27100
C1820       C  0.65705365  0.01006038  0.79655618    -0.13300
C1821       C  0.67957382  0.01322349  0.77653363     0.05200
C1822       C  0.70467449  0.50432219  0.78743814    -0.09300
C1823       C  0.70558319  0.48932537  0.81653104     0.06000
C1824       C  0.68211964  0.48246801  0.83296418    -0.13700
Br1825     Br  0.61168713  0.45993939  0.79863633    -0.05700
Br1826     Br  0.62063272  0.01821186  0.94401497    -0.00100
Br1827     Br  0.67437612  0.02776509  0.73312467     0.00400
Br1828     Br  0.68270234  0.45713318  0.86761559    -0.04100
Br1829     Br  0.56014179  0.45829218  0.84881187     0.00500
Br1830     Br  0.66711882  0.02491135  0.88938779    -0.03400
Br1831     Br  0.62495535  0.02818215  0.78604073    -0.04200
Br1832     Br  0.73843138  0.48093941  0.83751032    -0.00200
C1833       C  0.99187406  0.18840999  0.79511570     0.01200
C1834       C  0.96850634  0.17377822  0.79989045     0.04000
C1835       C  0.96966471  0.14903402  0.81372884    -0.12100
C1836       C  0.99273010  0.14033408  0.82897960     0.23300
C1837       C  0.51513955  0.15596981  0.82877938    -0.12600
C1838       C  0.51494773  0.17970231  0.81200786     0.04700
C1839       C  0.99207139  0.11688225  0.84996889     0.27100
C1840       C  0.98022281  0.11811049  0.88126209    -0.13300
C1841       C  0.98011390  0.09650804  0.90190518     0.05200
C1842       C  0.99374733  0.07375773  0.89265159    -0.09300
C1843       C  0.50514511  0.07245916  0.86072198     0.06000
C1844       C  0.50369527  0.09378914  0.83931667    -0.13700
Br1845     Br  0.54591928  0.14494007  0.85291187    -0.05700
Br1846     Br  0.93398400  0.18912847  0.79857625    -0.00100
Br1847     Br  0.95957001  0.09856466  0.94192635     0.00400
Br1848     Br  0.51784972  0.09175213  0.79528620    -0.04100
Br1849     Br  0.54611299  0.20059669  0.81624306     0.00500
Br1850     Br  0.93899681  0.12724671  0.81359246    -0.03400
Br1851     Br  0.96456809  0.14990568  0.89630520    -0.04200
Br1852     Br  0.52411848  0.04238073  0.84617753    -0.00200
C1853       C  0.99359298  0.28624146  0.79752471     0.01200
C1854       C  0.98202899  0.30881128  0.78384806     0.04000
C1855       C  0.98448955  0.33265170  0.79998692    -0.12100
C1856       C  0.99415789  0.33376935  0.83229481     0.23300
C1857       C  0.50362347  0.31122889  0.84710648    -0.12600
C1858       C  0.50586140  0.28848953  0.82879141     0.04700
C1859       C  0.99581667  0.35853890  0.85056979     0.27100
C1860       C  0.52074545  0.36878228  0.85812423    -0.13300
C1861       C  0.52296247  0.38869613  0.88126105     0.05200
C1862       C  0.00018247  0.40052164  0.89405171    -0.09300
C1863       C  0.97522011  0.39229438  0.88355795     0.06000
C1864       C  0.97295241  0.37064328  0.86309976    -0.13700
Br1865     Br  0.51381021  0.31153977  0.89287490    -0.05700
Br1866     Br  0.96068348  0.30834620  0.74485026    -0.00100
Br1867     Br  0.55712832  0.39888853  0.89669378     0.00400
Br1868     Br  0.93857618  0.35700762  0.85372203    -0.04100
Br1869     Br  0.52954072  0.26269449  0.84565663     0.00500
Br1870     Br  0.97568809  0.36406943  0.77734305    -0.03400
Br1871     Br  0.55185247  0.35538662  0.83668875    -0.04200
Br1872     Br  0.94414378  0.41063156  0.89757157    -0.00200
C1873       C  0.83654857  0.26332979  0.60890976     0.01200
C1874       C  0.84428715  0.28555785  0.62597462     0.04000
C1875       C  0.86664508  0.28489620  0.64654994    -0.12100
C1876       C  0.88064908  0.26175360  0.65120807     0.23300
C1877       C  0.87221167  0.23941126  0.63509116    -0.12600
C1878       C  0.85099759  0.24043823  0.61305103     0.04700
C1879       C  0.90441897  0.26050073  0.67263460     0.27100
C1880       C  0.92985302  0.26010256  0.65848636    -0.13300
C1881       C  0.95215436  0.25519820  0.67815708     0.05200
C1882       C  0.94915928  0.25028743  0.71211288    -0.09300
C1883       C  0.92384819  0.25295858  0.72658926     0.06000
C1884       C  0.90158910  0.25756927  0.70688385    -0.13700
Br1885     Br  0.88954987  0.20716064  0.64376338    -0.05700
Br1886     Br  0.82494018  0.31707149  0.62002447    -0.00100
Br1887     Br  0.98654772  0.25486423  0.65819673     0.00400
Br1888     Br  0.86693984  0.25874526  0.72656610    -0.04100
Br1889     Br  0.84226814  0.21047056  0.58772064     0.00500
Br1890     Br  0.87844342  0.31564449  0.66797871    -0.03400
Br1891     Br  0.93385669  0.26524364  0.61172784    -0.04200
Br1892     Br  0.91962089  0.25212112  0.77375710    -0.00200
C1893       C  0.65702415  0.26063262  0.61240735     0.01200
C1894       C  0.63371429  0.27485747  0.60629112     0.04000
C1895       C  0.61171993  0.27247722  0.62733216    -0.12100
C1896       C  0.61286570  0.25640090  0.65510389     0.23300
C1897       C  0.63630005  0.24288382  0.66195226    -0.12600
C1898       C  0.65825222  0.24483877  0.64065286     0.04700
C1899       C  0.58885381  0.25243692  0.67581793     0.27100
C1900       C  0.58340562  0.26851152  0.70281690    -0.13300
C1901       C  0.56072472  0.26449204  0.72239766     0.05200
C1902       C  0.54321718  0.24430037  0.71511778    -0.09300
C1903       C  0.54893514  0.22812364  0.68802129     0.06000
C1904       C  0.57137357  0.23248549  0.66824779    -0.13700
Br1905     Br  0.63774872  0.22062054  0.69979108    -0.05700
Br1906     Br  0.63157853  0.29806618  0.56932791    -0.00100
Br1907     Br  0.55504061  0.28567295  0.76050416     0.00400
Br1908     Br  0.57824436  0.21127658  0.63027214    -0.04100
Br1909     Br  0.68901478  0.22400833  0.64894077     0.00500
Br1910     Br  0.57937887  0.29034578  0.61739693    -0.03400
Br1911     Br  0.60733085  0.29594558  0.71295081    -0.04200
Br1912     Br  0.52621138  0.19976474  0.67750178    -0.00200
C1913       C  0.76043310  0.06300718  0.71438306     0.01200
C1914       C  0.75110818  0.08577596  0.73005335     0.04000
C1915       C  0.74768441  0.10855511  0.71187481    -0.12100
C1916       C  0.75704876  0.11024650  0.67939500     0.23300
C1917       C  0.77113128  0.08950468  0.66590093    -0.12600
C1918       C  0.77333019  0.06619969  0.68341161     0.04700
C1919       C  0.75290716  0.13403119  0.65965394     0.27100
C1920       C  0.73255778  0.13499445  0.63633162    -0.13300
C1921       C  0.72966333  0.15655923  0.61581077     0.05200
C1922       C  0.74758871  0.17711287  0.61773258    -0.09300
C1923       C  0.76673312  0.17697883  0.64284571     0.06000
C1924       C  0.76946806  0.15541567  0.66358463    -0.13700
Br1925     Br  0.78771621  0.09343005  0.62328623    -0.05700
Br1926     Br  0.74786615  0.08831611  0.77732290    -0.00100
Br1927     Br  0.70008722  0.15851252  0.58632714     0.00400
Br1928     Br  0.79645763  0.15473220  0.69677294    -0.04100
Br1929     Br  0.79768960  0.04102632  0.66649292     0.00500
Br1930     Br  0.72995052  0.13761255  0.73141248    -0.03400
Br1931     Br  0.70888732  0.10639797  0.63221533    -0.04200
Br1932     Br  0.78979112  0.20581993  0.64859501    -0.00200
C1933       C  0.75102293  0.46525210  0.70381459     0.01200
C1934       C  0.77357864  0.45629133  0.68679204     0.04000
C1935       C  0.77307849  0.43263111  0.67020576    -0.12100
C1936       C  0.74934042  0.41888215  0.66750860     0.23300
C1937       C  0.72646764  0.42842908  0.68308039    -0.12600
C1938       C  0.72766340  0.45071097  0.70257598     0.04700
C1939       C  0.74819248  0.39554326  0.64628545     0.27100
C1940       C  0.75061680  0.39816560  0.61202755    -0.13300
C1941       C  0.75263038  0.37640661  0.59179636     0.05200
C1942       C  0.74805060  0.35137026  0.60489726    -0.09300
C1943       C  0.74439169  0.34901434  0.63959614     0.06000
C1944       C  0.74569189  0.37088113  0.66006462    -0.13700
Br1945     Br  0.69305771  0.41200301  0.67574864    -0.05700
Br1946     Br  0.80551940  0.47611836  0.68610180    -0.00100
Br1947     Br  0.76445640  0.38231372  0.54698771     0.00400
Br1948     Br  0.74441282  0.36715687  0.70733448    -0.04100
Br1949     Br  0.69685539  0.46126749  0.72663118     0.00500
Br1950     Br  0.80499844  0.41912635  0.65071775    -0.03400
Br1951     Br  0.75084433  0.43206413  0.59264515    -0.04200
Br1952     Br  0.73696155  0.31648060  0.66043928    -0.00200
C1953       C  0.92898519  0.07570294  0.48683788     0.01200
C1954       C  0.92868729  0.08891186  0.51707610     0.04000
C1955       C  0.91112316  0.10940649  0.52184449    -0.12100
C1956       C  0.89258717  0.11537541  0.49736417     0.23300
C1957       C  0.89211330  0.10137099  0.46779075    -0.12600
C1958       C  0.91087831  0.08213551  0.46208824     0.04700
C1959       C  0.87381141  0.13669808  0.50209979     0.27100
C1960       C  0.85106914  0.13312508  0.52135835    -0.13300
C1961       C  0.83219960  0.15278575  0.52379260     0.05200
C1962       C  0.83545650  0.17576947  0.50553212    -0.09300
C1963       C  0.85852285  0.17913838  0.48621124     0.06000
C1964       C  0.87789394  0.15990472  0.48533363    -0.13700
Br1965     Br  0.86583221  0.10874232  0.43498152    -0.05700
Br1966     Br  0.95213926  0.07872576  0.55195665    -0.00100
Br1967     Br  0.80248424  0.14785892  0.55306863     0.00400
Br1968     Br  0.90988610  0.16478529  0.46012924    -0.04100
Br1969     Br  0.91236422  0.06510165  0.42003705     0.00500
Br1970     Br  0.91298013  0.12987241  0.56123161    -0.03400
Br1971     Br  0.84545784  0.10076757  0.54342364    -0.04200
Br1972     Br  0.86320340  0.20872685  0.45818055    -0.00200
C1973       C  0.56411541  0.07498388  0.48162977     0.01200
C1974       C  0.57217150  0.08072197  0.51387687     0.04000
C1975       C  0.59225280  0.09860755  0.51905692    -0.12100
C1976       C  0.60271437  0.11248352  0.49221430     0.23300
C1977       C  0.59348312  0.10776481  0.46010332    -0.12600
C1978       C  0.57497373  0.08833208  0.45470844     0.04700
C1979       C  0.62325924  0.13212330  0.49762925     0.27100
C1980       C  0.61680823  0.15532464  0.51339309    -0.13300
C1981       C  0.63634478  0.17381510  0.51884466     0.05200
C1982       C  0.66184728  0.17056613  0.50511969    -0.09300
C1983       C  0.66793511  0.14744231  0.48829245     0.06000
C1984       C  0.64908680  0.12790155  0.48609533    -0.13700
Br1985     Br  0.60568410  0.12837303  0.42361114    -0.05700
Br1986     Br  0.55538205  0.06414821  0.55094098    -0.00100
Br1987     Br  0.62798615  0.20268165  0.54678159     0.00400
Br1988     Br  0.65847812  0.09538012  0.46640564    -0.04100
Br1989     Br  0.56438193  0.07996862  0.41055123     0.00500
Br1990     Br  0.60564900  0.10367622  0.56288410    -0.03400
Br1991     Br  0.58076771  0.16235105  0.52601850    -0.04200
Br1992     Br  0.70099434  0.14257982  0.46527387    -0.00200
C1993       C  0.65562995  0.34105855  0.49964725     0.01200
C1994       C  0.65924962  0.36438264  0.51678409     0.04000
C1995       C  0.64014384  0.38377822  0.51499586    -0.12100
C1996       C  0.61695069  0.37971087  0.49720354     0.23300
C1997       C  0.61231597  0.35597857  0.48211164    -0.12600
C1998       C  0.63185225  0.33687598  0.48248301     0.04700
C1999       C  0.59811870  0.40095316  0.49270056     0.27100
C2000       C  0.57995364  0.40708386  0.51776538    -0.13300
C2001       C  0.56251179  0.42769129  0.51348501     0.05200
C2002       C  0.56241892  0.44131856  0.48351961    -0.09300
C2003       C  0.58058012  0.43517418  0.45847069     0.06000
C2004       C  0.59876303  0.41527752  0.46330053    -0.13700
Br2005     Br  0.57900727  0.34987102  0.46095118    -0.05700
Br2006     Br  0.68962636  0.36996824  0.54414889    -0.00100
Br2007     Br  0.53903666  0.43761426  0.54875690     0.00400
Br2008     Br  0.62471678  0.40769331  0.42979743    -0.04100
Br2009     Br  0.62619943  0.30603913  0.45732220     0.00500
Br2010     Br  0.64566584  0.41613302  0.53685801    -0.03400
Br2011     Br  0.57886357  0.38703624  0.55766295    -0.04200
Br2012     Br  0.58024299  0.45386375  0.41748633    -0.00200
C2013       C  0.92750283  0.44203389  0.47823753     0.01200
C2014       C  0.91777224  0.43644469  0.51002577     0.04000
C2015       C  0.89855349  0.41752842  0.51425891    -0.12100
C2016       C  0.89028823  0.40305727  0.48702513     0.23300
C2017       C  0.90108681  0.40766847  0.45555889    -0.12600
C2018       C  0.91891191  0.42779741  0.45095520     0.04700
C2019       C  0.86949402  0.38365511  0.49106035     0.27100
C2020       C  0.87492889  0.36046689  0.50730330    -0.13300
C2021       C  0.85497838  0.34226367  0.51146715     0.05200
C2022       C  0.83014548  0.34602821  0.49640649    -0.09300
C2023       C  0.82517610  0.36908877  0.47898875     0.06000
C2024       C  0.84439433  0.38828578  0.47784222    -0.13700
Br2025     Br  0.89158122  0.38618107  0.41887102    -0.05700
Br2026     Br  0.93075529  0.45472687  0.54784431    -0.00100
Br2027     Br  0.86204920  0.31301777  0.53935614     0.00400
Br2028     Br  0.83655454  0.42102184  0.45768971    -0.04100
Br2029     Br  0.93154261  0.43589912  0.40733225     0.00500
Br2030     Br  0.88328404  0.41175861  0.55727348    -0.03400
Br2031     Br  0.91002879  0.35331240  0.52308107    -0.04200
Br2032     Br  0.79333105  0.37423908  0.45397532    -0.00200
C2033       C  0.65604128  0.25356723  0.39657169     0.01200
C2034       C  0.65017555  0.27489359  0.37653202     0.04000
C2035       C  0.62729174  0.27503305  0.35710451    -0.12100
C2036       C  0.61090315  0.25332394  0.35619959     0.23300
C2037       C  0.61726441  0.23163882  0.37528872    -0.12600
C2038       C  0.63947046  0.23192541  0.39587628     0.04700
C2039       C  0.58779333  0.25278862  0.33382747     0.27100
C2040       C  0.56224072  0.25798525  0.34570315    -0.13300
C2041       C  0.54031040  0.25638670  0.32449675     0.05200
C2042       C  0.54386182  0.24914482  0.29106672    -0.09300
C2043       C  0.57001617  0.24736009  0.27886565     0.06000
C2044       C  0.59163953  0.24791336  0.30023250    -0.13700
Br2045     Br  0.59551292  0.20150154  0.37299726    -0.05700
Br2046     Br  0.67311514  0.30420297  0.37625163    -0.00100
Br2047     Br  0.50636348  0.26566860  0.34203448     0.00400
Br2048     Br  0.62678547  0.24157065  0.28356661    -0.04100
Br2049     Br  0.64743254  0.20237187  0.42267232     0.00500
Br2050     Br  0.61787984  0.30517622  0.33222993    -0.03400
Br2051     Br  0.55758173  0.26711107  0.39137378    -0.04200
Br2052     Br  0.57708561  0.24822853  0.23251954    -0.00200
C2053       C  0.83519245  0.25562640  0.39411508     0.01200
C2054       C  0.83751008  0.23434419  0.37291028     0.04000
C2055       C  0.85985288  0.23155212  0.35243817    -0.12100
C2056       C  0.88022747  0.24980230  0.35327459     0.23300
C2057       C  0.87778829  0.27124266  0.37405331    -0.12600
C2058       C  0.85531908  0.27426831  0.39422229     0.04700
C2059       C  0.90409536  0.24659914  0.33205214     0.27100
C2060       C  0.92640578  0.23342678  0.34388742    -0.13300
C2061       C  0.94876070  0.23008294  0.32350325     0.05200
C2062       C  0.94952460  0.24111182  0.29172149    -0.09300
C2063       C  0.92615608  0.25191890  0.27892576     0.06000
C2064       C  0.90392691  0.25550027  0.29934724    -0.13700
Br2065     Br  0.90556618  0.29629148  0.37506681    -0.05700
Br2066     Br  0.81104497  0.20798197  0.37345364    -0.00100
Br2067     Br  0.97657848  0.20727840  0.33738842     0.00400
Br2068     Br  0.87277349  0.27197028  0.28234835    -0.04100
Br2069     Br  0.85200121  0.30437056  0.42149841     0.00500
Br2070     Br  0.86290897  0.20239573  0.32359655    -0.03400
Br2071     Br  0.92584504  0.21924485  0.38772703    -0.04200
Br2072     Br  0.92289902  0.25811189  0.23232409    -0.00200
C2073       C  0.75306021  0.45725578  0.29193216     0.01200
C2074       C  0.77205581  0.45269610  0.31675897     0.04000
C2075       C  0.77101576  0.43026465  0.33609681    -0.12100
C2076       C  0.75340820  0.41050447  0.32812398     0.23300
C2077       C  0.73700089  0.41342293  0.30053752    -0.12600
C2078       C  0.73629037  0.43681290  0.28297863     0.04700
C2079       C  0.75081379  0.38741598  0.34980725     0.27100
C2080       C  0.76892431  0.36688508  0.34775314    -0.13300
C2081       C  0.76627353  0.34534784  0.36863489     0.05200
C2082       C  0.74528910  0.34398912  0.39153428    -0.09300
C2083       C  0.72702813  0.36451346  0.39326130     0.06000
C2084       C  0.72983418  0.38604646  0.37257659    -0.13700
Br2085     Br  0.71455027  0.38543674  0.28788612    -0.05700
Br2086     Br  0.80132499  0.47578191  0.32236115    -0.00100
Br2087     Br  0.79265453  0.31868020  0.36756852     0.00400
Br2088     Br  0.70513532  0.41416661  0.37582114    -0.04100
Br2089     Br  0.71171783  0.44011697  0.24740386     0.00500
Br2090     Br  0.79237064  0.42746917  0.37501984    -0.03400
Br2091     Br  0.79761111  0.36847393  0.31658596    -0.04200
Br2092     Br  0.69784763  0.36335220  0.42390398    -0.00200
C2093       C  0.74703558  0.05541810  0.30087558     0.01200
C2094       C  0.73472140  0.05573941  0.33252020     0.04000
C2095       C  0.73614287  0.07779439  0.35257501    -0.12100
C2096       C  0.74820992  0.10022814  0.34074385     0.23300
C2097       C  0.75700297  0.10113323  0.30798423    -0.12600
C2098       C  0.75428591  0.07960445  0.28758473     0.04700
C2099       C  0.74857146  0.12388353  0.36121717     0.27100
C2100       C  0.72918574  0.14298683  0.35681087    -0.13300
C2101       C  0.72974041  0.16561642  0.37568894     0.05200
C2102       C  0.74907475  0.16882301  0.40017618    -0.09300
C2103       C  0.76861003  0.14970031  0.40424068     0.06000
C2104       C  0.76843335  0.12746113  0.38470170    -0.13700
Br2105     Br  0.77170850  0.13244369  0.29052956    -0.05700
Br2106     Br  0.71012412  0.02951312  0.34592957    -0.00100
Br2107     Br  0.70343435  0.19166491  0.36835496     0.00400
Br2108     Br  0.79538434  0.10169780  0.39010997    -0.04100
Br2109     Br  0.75297003  0.08592214  0.24103428     0.00500
Br2110     Br  0.72007466  0.07805377  0.39575595    -0.03400
Br2111     Br  0.70132653  0.13760895  0.32550007    -0.04200
Br2112     Br  0.79649873  0.15424877  0.43566799    -0.00200
O2113       O  0.74713785  0.71387705  0.41133758    -0.86700
O2114       O  0.74698413  0.72103677  0.60048182    -0.86800
O2115       O  0.79042510  0.68771304  0.50532712    -0.88500
O2116       O  0.70593413  0.68527768  0.50940089    -0.87200
O2117       O  0.67301408  0.71488065  0.50427737    -0.86800
O2118       O  0.82139234  0.71930287  0.50534196    -0.88200
O2119       O  0.74799567  0.68915226  0.56162471    -0.86700
O2120       O  0.74793265  0.68518936  0.45426881    -0.86300
Zr2121     Zr  0.74747291  0.70804217  0.50654878     2.84300
O2122       O  0.72064077  0.73408529  0.53924704    -1.08200
O2123       O  0.77271197  0.73300657  0.47049377    -1.09000
C2124       C  0.74793419  0.69086338  0.42330915     1.06500
C2125       C  0.74749943  0.69721494  0.59169910     1.06400
C2126       C  0.81441910  0.69557604  0.50549720     1.09400
C2127       C  0.68150497  0.69161436  0.50670162     1.07200
H2128       H  0.78476202  0.72538934  0.55206326     0.32700
O2129       O  0.77342201  0.73531583  0.53823370    -1.29200
H2130       H  0.70966000  0.71993698  0.45844586     0.32400
O2131       O  0.72035500  0.73149716  0.47118686    -1.30900
O2132       O  0.74895456  0.80557708  0.59383592    -0.86600
O2133       O  0.74468081  0.79935728  0.40717139    -0.88100
O2134       O  0.82147766  0.76332323  0.55427503    -0.86700
O2135       O  0.67172477  0.75725863  0.55742653    -0.86800
O2136       O  0.67086305  0.75516029  0.45124280    -0.86500
O2137       O  0.82058577  0.75817470  0.44907593    -0.86300
O2138       O  0.78565406  0.83243898  0.50026975    -0.86700
O2139       O  0.70057286  0.82929243  0.49710677    -0.86100
O2140       O  0.81825282  0.80228872  0.49712258    -0.87200
O2141       O  0.66981539  0.79777241  0.50297541    -0.86300
O2142       O  0.79067243  0.76380403  0.59595119    -0.86700
O2143       O  0.78932354  0.75650165  0.40854002    -0.86500
O2144       O  0.70178771  0.75552780  0.40968329    -0.86100
O2145       O  0.70281700  0.76309850  0.59746022    -0.86500
O2146       O  0.74296580  0.83338484  0.55144370    -0.86800
O2147       O  0.74412979  0.83063275  0.44678854    -0.88200
Zr2148     Zr  0.74657042  0.76201877  0.57080736     2.83100
Zr2149     Zr  0.74557410  0.75709757  0.43523674     2.83500
Zr2150     Zr  0.79849621  0.76029448  0.50211868     2.84100
Zr2151     Zr  0.69324408  0.75719503  0.50395165     2.83400
Zr2152     Zr  0.74396145  0.80991738  0.50004290     2.84200
O2153       O  0.71812397  0.78276654  0.46819020    -1.08700
O2154       O  0.77188423  0.78680024  0.53459995    -1.08200
C2155       C  0.74659746  0.82854256  0.58212556     1.06400
C2156       C  0.74442859  0.82313611  0.41662438     1.09000
C2157       C  0.81468173  0.76394735  0.58490029     1.06600
C2158       C  0.67873643  0.76040114  0.58759716     1.07000
C2159       C  0.67778292  0.75481838  0.42063742     1.06500
C2160       C  0.81347443  0.75696816  0.41871892     1.06100
C2161       C  0.81000557  0.82563611  0.49809358     1.06500
C2162       C  0.67666766  0.82138074  0.49978151     1.06000
H2163       H  0.78201862  0.79492761  0.45309568     0.32700
O2164       O  0.77135428  0.78431297  0.46733262    -1.29800
H2165       H  0.70724397  0.79619534  0.54872643     0.32700
O2166       O  0.71854266  0.78517456  0.53583048    -1.31200
N2167       N  0.53645320  0.50842778  0.47331252    -0.36800
N2168       N  0.99525122  0.96947022  0.47382454    -0.57300
N2169       N  0.95513671  0.50891866  0.47348295    -0.36800
N2170       N  0.99636631  0.54781085  0.47617131    -0.57300
C2171       C  0.55080353  0.98743673  0.48103767     0.26800
C2172       C  0.55162185  0.52904974  0.47953102     0.26800
C2173       C  0.93965478  0.98812502  0.47735735     0.26800
C2174       C  0.94045753  0.52966543  0.48142657     0.26800
C2175       C  0.51657257  0.95407781  0.47177661     0.35400
C2176       C  0.97409180  0.95422403  0.47022669     0.35400
C2177       C  0.51755861  0.56308875  0.47259994     0.35400
C2178       C  0.97506606  0.56327205  0.47494308     0.35400
C2179       C  0.57563496  0.99476009  0.49124120    -0.22100
C2180       C  0.57626797  0.52097895  0.48989847    -0.22100
C2181       C  0.91442768  0.99592189  0.48610625    -0.22100
C2182       C  0.91505789  0.52204902  0.48922614    -0.22100
C2183       C  0.50897781  0.92895444  0.46666670    -0.23100
C2184       C  0.98208258  0.92900310  0.46595984    -0.23100
C2185       C  0.50966354  0.58837875  0.46906201    -0.23100
C2186       C  0.98274262  0.58848537  0.47045761    -0.23100
C2187       C  0.54261781  0.96174686  0.47806394    -0.18500
C2188       C  0.54389152  0.55498975  0.47636542    -0.18500
C2189       C  0.94889478  0.55542998  0.48067591    -0.18500
C2190       C  0.94766586  0.96225126  0.47393854    -0.18500
H2191       H  0.59171976  0.98248578  0.49880072     0.14400
H2192       H  0.59292989  0.53271180  0.49640679     0.14400
H2193       H  0.89738143  0.98403643  0.49053489     0.14400
H2194       H  0.89857312  0.53406233  0.49629177     0.14400
H2195       H  0.52147817  0.91218066  0.46479673     0.12700
H2196       H  0.96988956  0.91220281  0.46347698     0.12700
H2197       H  0.52199018  0.60513083  0.46672448     0.12700
H2198       H  0.97027016  0.60530511  0.46916920     0.12700
H2199       H  0.51827991  0.50860419  0.46186802     0.26000
H2200       H  0.97399136  0.50910042  0.46373493     0.26000
O2201       O  0.00216429  0.94445096  0.90818547    -0.86700
O2202       O  0.99982641  0.94702041  0.09737195    -0.86800
O2203       O  0.54632689  0.91561771  0.00525855    -0.88500
O2204       O  0.96149926  0.91390568  0.00526131    -0.87200
O2205       O  0.92897171  0.94383940  0.00015764    -0.86800
O2206       O  0.57704280  0.94752436  0.00734467    -0.88200
O2207       O  0.00126740  0.91602352  0.05729592    -0.86700
O2208       O  0.00300185  0.91420627  0.94945184    -0.86300
Zr2209     Zr  0.00324763  0.93603660  0.00291264     2.84300
O2210       O  0.97584434  0.96153040  0.03591227    -1.08200
O2211       O  0.52916371  0.96173242  0.96846061    -1.09000
C2212       C  0.00219865  0.92110970  0.91885846     1.06500
C2213       C  0.99994888  0.92344085  0.08761273     1.06400
C2214       C  0.57017557  0.92378532  0.00761297     1.09400
C2215       C  0.93716550  0.92050568  0.00271918     1.07200
H2216       H  0.53920336  0.95250279  0.05061394     0.32700
O2217       O  0.52824458  0.96278513  0.03645135    -1.29200
H2218       H  0.96557865  0.94953138  0.95520994     0.32400
O2219       O  0.97633393  0.96058610  0.96842678    -1.30900
O2220       O  0.00238997  0.53137132  0.09467121    -0.86600
O2221       O  0.99714158  0.52894684  0.90730764    -0.88100
O2222       O  0.57567761  0.99033981  0.05597215    -0.86700
O2223       O  0.92665139  0.98455867  0.05410580    -0.86800
O2224       O  0.92741879  0.98685224  0.94870352    -0.84500
O2225       O  0.57624693  0.98559698  0.94847457    -0.86300
O2226       O  0.54207299  0.56064464  0.99809659    -0.86700
O2227       O  0.95699254  0.55827729  0.99859262    -0.86100
O2228       O  0.57493994  0.53031541  0.99922005    -0.87200
O2229       O  0.92584766  0.52687572  0.00071923    -0.86300
O2230       O  0.54385443  0.98937574  0.09641293    -0.86700
O2231       O  0.54583684  0.48867610  0.90735528    -0.86500
O2232       O  0.95846838  0.48533023  0.90759749    -0.86100
O2233       O  0.95669231  0.99005303  0.09512877    -0.86500
O2234       O  0.99865314  0.56052085  0.05306966    -0.86800
O2235       O  0.99937070  0.55945400  0.94743740    -0.88200
Zr2236     Zr  0.00082630  0.98864912  0.06939829     2.83100
Zr2237     Zr  0.00204754  0.98674589  0.93398540     2.83500
Zr2238     Zr  0.55435600  0.98832586  0.00215602     2.84100
Zr2239     Zr  0.94916124  0.98604786  0.00149088     2.83400
Zr2240     Zr  0.00024876  0.53840273  0.00056485     2.84200
O2241       O  0.97475699  0.51204170  0.96739810    -1.08700
O2242       O  0.52725870  0.51419528  0.03506891    -1.08200
C2243       C  0.00078818  0.55462637  0.08373636     1.06400
C2244       C  0.99700116  0.55253418  0.91720092     1.09000
C2245       C  0.56807577  0.99017911  0.08642528     1.06600
C2246       C  0.93280364  0.98765264  0.08452130     1.07000
C2247       C  0.93433891  0.48586729  0.91819608     1.06500
C2248       C  0.56989318  0.48746099  0.91781657     1.06100
C2249       C  0.56640352  0.55358745  0.99759773     1.06500
C2250       C  0.93293930  0.55053023  0.99908831     1.06000
H2251       H  0.53837520  0.52385346  0.95369516     0.32700
O2252       O  0.52770463  0.51310997  0.96751503    -1.29800
H2253       H  0.96245960  0.52396146  0.04783494     0.32700
O2254       O  0.97391802  0.51318287  0.03483393    -1.31200
N2255       N  0.71137014  0.73712061  0.99328993    -0.36800
N2256       N  0.75112101  0.69907841  0.98225035    -0.57300
N2257       N  0.79113601  0.73814890  0.98185991    -0.36800
N2258       N  0.75081076  0.77632260  0.99276651    -0.57300
C2259       C  0.69881574  0.71545837  0.00225967     0.26800
C2260       C  0.69819100  0.75690379  0.00700001     0.26800
C2261       C  0.80592119  0.71683904  0.98604682     0.26800
C2262       C  0.80580720  0.75826465  0.99143090     0.26800
C2263       C  0.72942895  0.68529989  0.97556141     0.35400
C2264       C  0.77184511  0.68555100  0.97077315     0.35400
C2265       C  0.72903984  0.79109074  0.99102389     0.35400
C2266       C  0.77140463  0.79180597  0.98657692     0.35400
C2267       C  0.67762394  0.72150917  0.02253960    -0.22100
C2268       C  0.67705481  0.74783863  0.02520887    -0.22100
C2269       C  0.83046440  0.72348236  0.99793408    -0.22100
C2270       C  0.83047109  0.74971034  0.00109242    -0.22100
C2271       C  0.73636881  0.66309914  0.95887114    -0.23100
C2272       C  0.76340321  0.66303611  0.95643249    -0.23100
C2273       C  0.73577203  0.81611151  0.98337538    -0.23100
C2274       C  0.76273215  0.81661676  0.98090196    -0.23100
C2275       C  0.70432565  0.69107313  0.98882637    -0.18500
C2276       C  0.70383065  0.78285347  0.00089869    -0.18500
C2277       C  0.79789305  0.78417262  0.98961785    -0.18500
C2278       C  0.79816835  0.69181475  0.97752286    -0.18500
H2279       H  0.66342363  0.70840897  0.03305823     0.14400
H2280       H  0.66251800  0.75905087  0.03845422     0.14400
H2281       H  0.84680410  0.71081333  0.00327111     0.14400
H2282       H  0.84684510  0.76113031  0.00938990     0.14400
H2283       H  0.72348094  0.64790350  0.95094470     0.12700
H2284       H  0.77551239  0.64791217  0.94614695     0.12700
H2285       H  0.72274624  0.83247905  0.98130213     0.12700
H2286       H  0.77458857  0.83342474  0.97633095     0.12700
H2287       H  0.72571167  0.73863559  0.97497881     0.26000
H2288       H  0.77313064  0.73917733  0.96987816     0.26000
C2289       C  0.99857438  0.71448430  0.22820995     0.86300
C2290       C  0.52216939  0.71900710  0.25143568    -0.53900
C2291       C  0.52129165  0.74130481  0.26915761     0.09200
C2292       C  0.99570864  0.75663101  0.26309191     0.20200
C2293       C  0.97524996  0.71517858  0.25215199    -0.54600
C2294       C  0.97290646  0.73718493  0.26978594     0.09400
C2295       C  0.99590963  0.73920591  0.20785311    -0.54200
C2296       C  0.99554405  0.76161428  0.22544686     0.09900
H2297       H  0.53781007  0.70520987  0.25526145     0.14400
H2298       H  0.99499675  0.77425359  0.27782066     0.00200
H2299       H  0.96131851  0.69958807  0.25479208     0.14700
H2300       H  0.99449355  0.73873129  0.18125786     0.14500
C2301       C  0.74872982  0.53097485  0.27925997     0.86300
C2302       C  0.77327787  0.52904012  0.25666696    -0.53900
C2303       C  0.77391323  0.00826928  0.23579829     0.09200
C2304       C  0.74945163  0.99089242  0.24046648     0.20200
C2305       C  0.72510966  0.52921926  0.25649383    -0.54600
C2306       C  0.72508445  0.00850752  0.23642033     0.09400
C2307       C  0.74981098  0.00503243  0.29740847    -0.54200
C2308       C  0.75004007  0.98380401  0.27759053     0.09900
H2309       H  0.78951317  0.54235666  0.25859097     0.14400
H2310       H  0.74892280  0.97453114  0.22333364     0.00200
H2311       H  0.70911342  0.54309592  0.25683154     0.14700
H2312       H  0.75200538  0.00341200  0.32380384     0.14500
C2313       C  0.99239948  0.71356693  0.77433203     0.86300
C2314       C  0.97067040  0.71788411  0.74849257    -0.53900
C2315       C  0.97174720  0.74101899  0.73260074     0.09200
C2316       C  0.99616552  0.75707478  0.74208120     0.20200
C2317       C  0.51751585  0.71632900  0.75334376    -0.54600
C2318       C  0.51996497  0.73893801  0.73693193     0.09400
C2319       C  0.99093007  0.73766324  0.79601473    -0.54200
C2320       C  0.99344744  0.76065784  0.77978972     0.09900
H2321       H  0.95566337  0.70405956  0.74251812     0.14400
H2322       H  0.99851943  0.77501660  0.72790678     0.00200
H2323       H  0.53205173  0.70116662  0.75077803     0.14700
H2324       H  0.98722187  0.73632692  0.82225233     0.14500
C2325       C  0.75720471  0.53621443  0.73085043     0.86300
C2326       C  0.73282740  0.53384714  0.75334111    -0.53900
C2327       C  0.72944215  0.01065258  0.76838350     0.09200
C2328       C  0.75209955  0.99161595  0.76026663     0.20200
C2329       C  0.78038834  0.52887450  0.75280048    -0.54600
C2330       C  0.77788811  0.00592794  0.76887130     0.09400
C2331       C  0.75379732  0.01323780  0.70723602    -0.54200
C2332       C  0.75204219  0.98990371  0.72244283     0.09900
H2333       H  0.71857411  0.54911493  0.75611484     0.14400
H2334       H  0.75003285  0.97259383  0.77205004     0.00200
H2335       H  0.79721191  0.54133743  0.75618103     0.14700
H2336       H  0.75237725  0.01504732  0.68074414     0.14500
C2337       C  0.58907319  0.99092204  0.11170554     0.01200
C2338       C  0.60851107  0.97153497  0.11254386     0.04000
C2339       C  0.63007330  0.97350774  0.13402462    -0.12100
C2340       C  0.63274759  0.99517579  0.15437797     0.23300
C2341       C  0.61277527  0.51408205  0.15451908    -0.12600
C2342       C  0.59064487  0.51156829  0.13397706     0.04700
C2343       C  0.65660242  0.99804007  0.17538573     0.27100
C2344       C  0.65498433  0.99401575  0.20964769    -0.13300
C2345       C  0.67739842  0.99719200  0.22944808     0.05200
C2346       C  0.70200690  0.00323401  0.21501204    -0.09300
C2347       C  0.70371700  0.50684636  0.18068980     0.06000
C2348       C  0.68102317  0.50470850  0.16103963    -0.13700
Br2349     Br  0.61619197  0.54396844  0.18199698    -0.05700
Br2350     Br  0.60490768  0.94149129  0.08549236    -0.00100
Br2351     Br  0.67415011  0.99335036  0.27658313     0.00400
Br2352     Br  0.68308349  0.51189960  0.11450625    -0.04100
Br2353     Br  0.56263305  0.53656741  0.13640230     0.00500
Br2354     Br  0.65607752  0.94647435  0.13561515    -0.03400
Br2355     Br  0.62194405  0.98416285  0.22953582    -0.04200
Br2356     Br  0.73682761  0.51611864  0.16073441    -0.00200
C2357       C  0.79724837  0.00259840  0.21331932     0.01200
C2358       C  0.80684295  0.97723435  0.20738954     0.04000
C2359       C  0.82830603  0.97308511  0.18568286    -0.12100
C2360       C  0.84341742  0.99387118  0.17449712     0.23300
C2361       C  0.83562725  0.51881650  0.18283019    -0.12600
C2362       C  0.81126164  0.52307679  0.19830377     0.04700
C2363       C  0.86602498  0.99023621  0.15142699     0.27100
C2364       C  0.89039422  0.98064777  0.16248895    -0.13300
C2365       C  0.91204488  0.97879014  0.14061548     0.05200
C2366       C  0.91022771  0.98897631  0.10832295    -0.09300
C2367       C  0.88592602  0.99998159  0.09820912     0.06000
C2368       C  0.86367903  0.99892681  0.11880902    -0.13700
Br2369     Br  0.85823043  0.54740997  0.17210250    -0.05700
Br2370     Br  0.79344667  0.94748418  0.22978572    -0.00100
Br2371     Br  0.94344349  0.96128984  0.15516153     0.00400
Br2372     Br  0.82978080  0.51019061  0.10256797    -0.04100
Br2373     Br  0.79586694  0.55630039  0.19195123     0.00500
Br2374     Br  0.83674145  0.93897217  0.17046128    -0.03400
Br2375     Br  0.89434032  0.97117104  0.20809368    -0.04200
Br2376     Br  0.88284777  0.51936608  0.05781939    -0.00200
C2377       C  0.99813502  0.90288638  0.11282152     0.01200
C2378       C  0.51749490  0.90020296  0.13740570     0.04000
C2379       C  0.51756983  0.87841243  0.15803408    -0.12100
C2380       C  0.99791781  0.85959386  0.15481011     0.23300
C2381       C  0.97787180  0.86294588  0.13142017    -0.12600
C2382       C  0.97789221  0.88453304  0.11067755     0.04700
C2383       C  0.99888829  0.83555500  0.17463434     0.27100
C2384       C  0.51417163  0.81483479  0.16363311    -0.13300
C2385       C  0.51400729  0.79138268  0.18088396     0.05200
C2386       C  0.99729208  0.78776339  0.20895286    -0.09300
C2387       C  0.98257772  0.80940239  0.22040988     0.06000
C2388       C  0.98369550  0.83304332  0.20340660    -0.13700
Br2389     Br  0.95091292  0.83727118  0.12691548    -0.05700
Br2390     Br  0.54460172  0.92567217  0.14199917    -0.00100
Br2391     Br  0.53868954  0.76559447  0.16591032     0.00400
Br2392     Br  0.96409931  0.86247513  0.21903571    -0.04100
Br2393     Br  0.94948116  0.88930803  0.08004412     0.00500
Br2394     Br  0.54529623  0.87352296  0.18963796    -0.03400
Br2395     Br  0.53530492  0.81887875  0.12418871    -0.04200
Br2396     Br  0.95973790  0.80812537  0.25839862    -0.00200
C2397       C  0.00158678  0.57652790  0.10763850     0.01200
C2398       C  0.99095911  0.57431022  0.13999223     0.04000
C2399       C  0.99123022  0.59550247  0.16159076    -0.12100
C2400       C  0.00096532  0.61929029  0.15088102     0.23300
C2401       C  0.51159550  0.62167417  0.11904461    -0.12600
C2402       C  0.51241303  0.60049990  0.09775846     0.04700
C2403       C  0.99963163  0.64232884  0.17239332     0.27100
C2404       C  0.97672306  0.65753883  0.17310907    -0.13300
C2405       C  0.97635613  0.68102381  0.19034514     0.05200
C2406       C  0.99944437  0.69008216  0.20635867    -0.09300
C2407       C  0.52323144  0.67643685  0.20000671     0.06000
C2408       C  0.52271386  0.65161980  0.18675176    -0.13700
Br2409     Br  0.52481808  0.65453831  0.10438322    -0.05700
Br2410     Br  0.97412063  0.54322164  0.15487571    -0.00100
Br2411     Br  0.94473330  0.70157384  0.18779442     0.00400
Br2412     Br  0.55452811  0.63121301  0.18523731    -0.04100
Br2413     Br  0.52921500  0.60548438  0.05539838     0.00500
Br2414     Br  0.97822670  0.59227599  0.20609814    -0.03400
Br2415     Br  0.94631466  0.64664233  0.14855766    -0.04200
Br2416     Br  0.55628798  0.69389613  0.19541244    -0.00200
C2417       C  0.59132492  0.90447119  0.01117787     0.01200
C2418       C  0.61487743  0.90672971  0.99266995     0.04000
C2419       C  0.63459258  0.88794947  0.99549797    -0.12100
C2420       C  0.63032944  0.86623743  0.01530398     0.23300
C2421       C  0.60756830  0.86447275  0.03496186    -0.12600
C2422       C  0.58827890  0.88376221  0.03340059     0.04700
C2423       C  0.64842664  0.84412466  0.01281265     0.27100
C2424       C  0.64601729  0.82718671  0.98605778    -0.13300
C2425       C  0.66337299  0.80634382  0.98294574     0.05200
C2426       C  0.68315033  0.80245850  0.00659098    -0.09300
C2427       C  0.68475787  0.81871893  0.03411723     0.06000
C2428       C  0.66764366  0.83978315  0.03699813    -0.13700
Br2429     Br  0.60274477  0.83526884  0.06358472    -0.05700
Br2430     Br  0.61973594  0.93422712  0.96131652    -0.00100
Br2431     Br  0.66042228  0.78349341  0.94593217     0.00400
Br2432     Br  0.67089543  0.86307936  0.07347691    -0.04100
Br2433     Br  0.55841092  0.88192935  0.06288175     0.00500
Br2434     Br  0.66742263  0.89155717  0.97183801    -0.03400
Br2435     Br  0.61918096  0.83294363  0.95334568    -0.04200
Br2436     Br  0.71045796  0.81194342  0.06779100    -0.00200
C2437       C  0.91718027  0.89973696  0.00246459     0.01200
C2438       C  0.89179699  0.90397013  0.01624584     0.04000
C2439       C  0.87229509  0.88511539  0.01362729    -0.12100
C2440       C  0.87839065  0.86121209  0.99956442     0.23300
C2441       C  0.90398297  0.85614559  0.98790619    -0.12600
C2442       C  0.92314303  0.87546139  0.98837104     0.04700
C2443       C  0.85781025  0.84137189  0.99699919     0.27100
C2444       C  0.84864506  0.82879999  0.02553848    -0.13300
C2445       C  0.82784569  0.81132713  0.02330528     0.05200
C2446       C  0.81827285  0.80421599  0.99221299    -0.09300
C2447       C  0.82824352  0.81588351  0.96353890     0.06000
C2448       C  0.84710835  0.83531774  0.96604634    -0.13700
Br2449     Br  0.91275404  0.82240736  0.97144590    -0.05700
Br2450     Br  0.88351443  0.93458180  0.04106857    -0.00100
Br2451     Br  0.81202791  0.79754452  0.06275176     0.00400
Br2452     Br  0.85783260  0.85400778  0.92723082    -0.04100
Br2453     Br  0.95690305  0.86793958  0.96820816     0.00500
Br2454     Br  0.83692709  0.89207916  0.02915385    -0.03400
Br2455     Br  0.86497586  0.83508387  0.06751015    -0.04200
Br2456     Br  0.81604123  0.80508642  0.92093257    -0.00200
C2457       C  0.91209784  0.57049320  0.99718049     0.01200
C2458       C  0.89026263  0.56737447  0.97606408     0.04000
C2459       C  0.87159951  0.58716427  0.97273240    -0.12100
C2460       C  0.87509742  0.61052419  0.98923743     0.23300
C2461       C  0.89670253  0.61375634  0.01031068    -0.12600
C2462       C  0.91471567  0.59358882  0.01506766     0.04700
C2463       C  0.85530257  0.63126419  0.98568879     0.27100
C2464       C  0.85535845  0.64717816  0.95759373    -0.13300
C2465       C  0.83645462  0.66681343  0.95456328     0.05200
C2466       C  0.81775454  0.67073080  0.97978800    -0.09300
C2467       C  0.81789087  0.65495163  0.00794408     0.06000
C2468       C  0.83623352  0.63490398  0.01053513    -0.13700
Br2469     Br  0.90161184  0.64601808  0.03254931    -0.05700
Br2470     Br  0.88607376  0.53680771  0.95001532    -0.00100
Br2471     Br  0.83603364  0.68839111  0.91603149     0.00400
Br2472     Br  0.83492100  0.61197701  0.04780238    -0.04100
Br2473     Br  0.94197604  0.59746207  0.04766008     0.00500
Br2474     Br  0.84094212  0.58241979  0.94561545    -0.03400
Br2475     Br  0.88118134  0.64187566  0.92325380    -0.04200
Br2476     Br  0.79354859  0.66147390  0.04361725    -0.00200
C2477       C  0.58606840  0.57388862  0.99473217     0.01200
C2478       C  0.59417345  0.58260813  0.96348912     0.04000
C2479       C  0.61423736  0.60097781  0.96096817    -0.12100
C2480       C  0.62375531  0.61288331  0.98967411     0.23300
C2481       C  0.61379439  0.60558749  0.02074797    -0.12600
C2482       C  0.59645474  0.58489465  0.02330332     0.04700
C2483       C  0.64461382  0.63257513  0.98775653     0.27100
C2484       C  0.66953507  0.62738514  0.00129597    -0.13300
C2485       C  0.68798393  0.64712644  0.00440450     0.05200
C2486       C  0.68340644  0.67105519  0.98908362    -0.09300
C2487       C  0.65893085  0.67568166  0.97359851     0.06000
C2488       C  0.63909845  0.65701710  0.97476636    -0.13700
Br2489     Br  0.62330843  0.62433862  0.05979097    -0.05700
Br2490     Br  0.57747998  0.56972832  0.92433170    -0.00100
Br2491     Br  0.71839728  0.64166624  0.03188688     0.00400
Br2492     Br  0.60408534  0.66527072  0.95966859    -0.04100
Br2493     Br  0.58786767  0.57092334  0.06586756     0.00500
Br2494     Br  0.62907019  0.60916713  0.91843645    -0.03400
Br2495     Br  0.67847810  0.59308859  0.01540716    -0.04200
Br2496     Br  0.65228750  0.70719378  0.95002013    -0.00200
C2497       C  0.91240394  0.98519039  0.89406058     0.01200
C2498       C  0.91198523  0.50200341  0.86674005     0.04000
C2499       C  0.89015533  0.50235118  0.84544349    -0.12100
C2500       C  0.86803306  0.98694695  0.85214745     0.23300
C2501       C  0.86821002  0.97043544  0.87950817    -0.12600
C2502       C  0.89037452  0.96918205  0.90003191     0.04700
C2503       C  0.84355271  0.99008570  0.83253436     0.27100
C2504       C  0.82663668  0.51085158  0.83910955    -0.13300
C2505       C  0.80411355  0.51486088  0.81980497     0.05200
C2506       C  0.79791209  0.99786744  0.79392510    -0.09300
C2507       C  0.81314602  0.97527109  0.79029477     0.06000
C2508       C  0.83655583  0.97203579  0.80845235    -0.13700
Br2509     Br  0.83726866  0.95056699  0.88994805    -0.05700
Br2510     Br  0.93958057  0.52685272  0.86043668    -0.00100
Br2511     Br  0.78092664  0.54300441  0.83040778     0.00400
Br2512     Br  0.85970180  0.94341989  0.79963505    -0.04100
Br2513     Br  0.88977746  0.94547392  0.93658371     0.00500
Br2514     Br  0.88983848  0.52482411  0.80770444    -0.03400
Br2515     Br  0.83464741  0.53402320  0.87457205    -0.04200
Br2516     Br  0.80171220  0.94781593  0.76257090    -0.00200
C2517       C  0.59224400  0.98908325  0.89330083     0.01200
C2518       C  0.61570448  0.50243315  0.90150807     0.04000
C2519       C  0.63644164  0.50474996  0.87856323    -0.12100
C2520       C  0.63511919  0.99258377  0.84776937     0.23300
C2521       C  0.61244683  0.97852256  0.83966889    -0.12600
C2522       C  0.59083312  0.97732302  0.86181115     0.04700
C2523       C  0.65812704  0.99436974  0.82470277     0.27100
C2524       C  0.65705299  0.51006055  0.79655558    -0.13300
C2525       C  0.67957343  0.51322415  0.77653354     0.05200
C2526       C  0.70467503  0.00432214  0.78743835    -0.09300
C2527       C  0.70558419  0.98932618  0.81653191     0.06000
C2528       C  0.68212086  0.98246893  0.83296563    -0.13700
Br2529     Br  0.61168697  0.95994145  0.79863636    -0.05700
Br2530     Br  0.62063097  0.51821300  0.94401303    -0.00100
Br2531     Br  0.67437622  0.52776726  0.73312533     0.00400
Br2532     Br  0.68270443  0.95713521  0.86761836    -0.04100
Br2533     Br  0.56014105  0.95829596  0.84881079     0.00500
Br2534     Br  0.66711803  0.52491072  0.88938673    -0.03400
Br2535     Br  0.62495440  0.52818171  0.78603976    -0.04200
Br2536     Br  0.73843274  0.98094125  0.83751097    -0.00200
C2537       C  0.99187445  0.68840954  0.79511608     0.01200
C2538       C  0.96850720  0.67377651  0.79988787     0.04000
C2539       C  0.96966605  0.64903174  0.81372449    -0.12100
C2540       C  0.99273080  0.64033249  0.82897733     0.23300
C2541       C  0.51513973  0.65596919  0.82877975    -0.12600
C2542       C  0.51494779  0.67970214  0.81200929     0.04700
C2543       C  0.99207164  0.61688047  0.84996627     0.27100
C2544       C  0.98021982  0.61810776  0.88125769    -0.13300
C2545       C  0.98011148  0.59650555  0.90190118     0.05200
C2546       C  0.99374766  0.57375639  0.89264953    -0.09300
C2547       C  0.50514846  0.57245859  0.86072160     0.06000
C2548       C  0.50369874  0.59378834  0.83931594    -0.13700
Br2549     Br  0.54591879  0.64493998  0.85291398    -0.05700
Br2550     Br  0.93398426  0.68912545  0.79857335    -0.00100
Br2551     Br  0.95956538  0.59856077  0.94192059     0.00400
Br2552     Br  0.51785748  0.59175223  0.79528754    -0.04100
Br2553     Br  0.54611216  0.70059736  0.81624715     0.00500
Br2554     Br  0.93899954  0.62724265  0.81358284    -0.03400
Br2555     Br  0.96455969  0.64990130  0.89629796    -0.04200
Br2556     Br  0.52412603  0.54238166  0.84618056    -0.00200
C2557       C  0.99359193  0.78624150  0.79752666     0.01200
C2558       C  0.98202789  0.80881127  0.78384987     0.04000
C2559       C  0.98448782  0.83265168  0.79998899    -0.12100
C2560       C  0.99415599  0.83376942  0.83229696     0.23300
C2561       C  0.50362185  0.81122908  0.84710854    -0.12600
C2562       C  0.50585997  0.78848967  0.82879351     0.04700
C2563       C  0.99581523  0.85853912  0.85057158     0.27100
C2564       C  0.52074430  0.86878242  0.85812502    -0.13300
C2565       C  0.52296196  0.88869672  0.88126110     0.05200
C2566       C  0.00018226  0.90052225  0.89405268    -0.09300
C2567       C  0.97521962  0.89229490  0.88356017     0.06000
C2568       C  0.97295131  0.87064397  0.86310180    -0.13700
Br2569     Br  0.51380944  0.81154034  0.89287668    -0.05700
Br2570     Br  0.96068356  0.80834619  0.74485106    -0.00100
Br2571     Br  0.55712828  0.89888996  0.89669136     0.00400
Br2572     Br  0.93857462  0.85700969  0.85372342    -0.04100
Br2573     Br  0.52953933  0.76269477  0.84565891     0.00500
Br2574     Br  0.97568613  0.86406940  0.77734520    -0.03400
Br2575     Br  0.55185083  0.85538600  0.83668919    -0.04200
Br2576     Br  0.94414371  0.91063178  0.89757596    -0.00200
C2577       C  0.83654973  0.76332731  0.60890994     0.01200
C2578       C  0.84428711  0.78555511  0.62597613     0.04000
C2579       C  0.86664447  0.78489365  0.64655238    -0.12100
C2580       C  0.88065013  0.76175174  0.65120855     0.23300
C2581       C  0.87221428  0.73940964  0.63508967    -0.12600
C2582       C  0.85099980  0.74043622  0.61305003     0.04700
C2583       C  0.90442003  0.76049945  0.67263523     0.27100
C2584       C  0.92985422  0.76010272  0.65848720    -0.13300
C2585       C  0.95215566  0.75519863  0.67815790     0.05200
C2586       C  0.94916056  0.75028726  0.71211354    -0.09300
C2587       C  0.92384937  0.75295749  0.72658985     0.06000
C2588       C  0.90159017  0.75756758  0.70688444    -0.13700
Br2589     Br  0.88955511  0.70715981  0.64375861    -0.05700
Br2590     Br  0.82493958  0.81706840  0.62002586    -0.00100
Br2591     Br  0.98654919  0.75486559  0.65819783     0.00400
Br2592     Br  0.86694094  0.75874249  0.72656687    -0.04100
Br2593     Br  0.84227079  0.71046863  0.58771915     0.00500
Br2594     Br  0.87843931  0.81564127  0.66798577    -0.03400
Br2595     Br  0.93385807  0.76524590  0.61172909    -0.04200
Br2596     Br  0.91962201  0.75211936  0.77375769    -0.00200
C2597       C  0.65702524  0.76063244  0.61240986     0.01200
C2598       C  0.63371440  0.77485564  0.60629259     0.04000
C2599       C  0.61172096  0.77247658  0.62733533    -0.12100
C2600       C  0.61286798  0.75640207  0.65510863     0.23300
C2601       C  0.63630281  0.74288589  0.66195727    -0.12600
C2602       C  0.65825462  0.74484065  0.64065724     0.04700
C2603       C  0.58885625  0.75243773  0.67582277     0.27100
C2604       C  0.58340647  0.76851354  0.70282009    -0.13300
C2605       C  0.56072538  0.76449380  0.72240043     0.05200
C2606       C  0.54321869  0.74430134  0.71512091    -0.09300
C2607       C  0.54893779  0.72812399  0.68802539     0.06000
C2608       C  0.57137704  0.73248534  0.66825323    -0.13700
Br2609     Br  0.63775226  0.72062327  0.69979670    -0.05700
Br2610     Br  0.63157525  0.79805980  0.56932495    -0.00100
Br2611     Br  0.55503976  0.78567556  0.76050584     0.00400
Br2612     Br  0.57825037  0.71127442  0.63028005    -0.04100
Br2613     Br  0.68901840  0.72401230  0.64894695     0.00500
Br2614     Br  0.57937915  0.79034395  0.61740019    -0.03400
Br2615     Br  0.60732942  0.79594998  0.71295185    -0.04200
Br2616     Br  0.52621406  0.69976533  0.67750478    -0.00200
C2617       C  0.76043396  0.56300668  0.71438339     0.01200
C2618       C  0.75110907  0.58577551  0.73005346     0.04000
C2619       C  0.74768494  0.60855439  0.71187461    -0.12100
C2620       C  0.75704934  0.61024553  0.67939484     0.23300
C2621       C  0.77113252  0.58950397  0.66590126    -0.12600
C2622       C  0.77333119  0.56619896  0.68341194     0.04700
C2623       C  0.75290788  0.63403010  0.65965377     0.27100
C2624       C  0.73255834  0.63499361  0.63633170    -0.13300
C2625       C  0.72966386  0.65655860  0.61581129     0.05200
C2626       C  0.74758955  0.67711195  0.61773309    -0.09300
C2627       C  0.76673426  0.67697756  0.64284578     0.06000
C2628       C  0.76946912  0.65541430  0.66358443    -0.13700
Br2629     Br  0.78771923  0.59343011  0.62328773    -0.05700
Br2630     Br  0.74786795  0.58831614  0.77732304    -0.00100
Br2631     Br  0.70008734  0.65851268  0.58632839     0.00400
Br2632     Br  0.79645907  0.65473017  0.69677223    -0.04100
Br2633     Br  0.79768996  0.54102505  0.66649289     0.00500
Br2634     Br  0.72995120  0.63761200  0.73141205    -0.03400
Br2635     Br  0.70888777  0.60639725  0.63221499    -0.04200
Br2636     Br  0.78979278  0.70581830  0.64859477    -0.00200
C2637       C  0.75102249  0.96525186  0.70381457     0.01200
C2638       C  0.77357722  0.95629163  0.68678947     0.04000
C2639       C  0.77307688  0.93263100  0.67020422    -0.12100
C2640       C  0.74933930  0.91888084  0.66751058     0.23300
C2641       C  0.72646729  0.92842705  0.68308483    -0.12600
C2642       C  0.72766348  0.95070958  0.70257925     0.04700
C2643       C  0.74819087  0.89554184  0.64628770     0.27100
C2644       C  0.75061313  0.89816434  0.61202961    -0.13300
C2645       C  0.75262777  0.87640551  0.59179839     0.05200
C2646       C  0.74804997  0.85136890  0.60489950    -0.09300
C2647       C  0.74439227  0.84901275  0.63959856     0.06000
C2648       C  0.74569267  0.87087953  0.66006706    -0.13700
Br2649     Br  0.69305761  0.91199907  0.67575795    -0.05700
Br2650     Br  0.80551709  0.97611983  0.68609414    -0.00100
Br2651     Br  0.76445261  0.88231353  0.54698943     0.00400
Br2652     Br  0.74441787  0.86715494  0.70733701    -0.04100
Br2653     Br  0.69685648  0.96126540  0.72663689     0.00500
Br2654     Br  0.80499591  0.91912735  0.65071245    -0.03400
Br2655     Br  0.75083693  0.93206282  0.59264700    -0.04200
Br2656     Br  0.73696326  0.81647884  0.66044192    -0.00200
C2657       C  0.92898735  0.57570446  0.48682679     0.01200
C2658       C  0.92869044  0.58891504  0.51706385     0.04000
C2659       C  0.91112593  0.60940944  0.52183161    -0.12100
C2660       C  0.89258877  0.61537656  0.49735202     0.23300
C2661       C  0.89211486  0.60137146  0.46777914    -0.12600
C2662       C  0.91087999  0.58213599  0.46207726     0.04700
C2663       C  0.87381190  0.63669819  0.50208806     0.27100
C2664       C  0.85107104  0.63312453  0.52134912    -0.13300
C2665       C  0.83220123  0.65278477  0.52378573     0.05200
C2666       C  0.83545639  0.67576865  0.50552524    -0.09300
C2667       C  0.85852091  0.67913787  0.48620104     0.06000
C2668       C  0.87789246  0.65990477  0.48532112    -0.13700
Br2669     Br  0.86583399  0.60874222  0.43496941    -0.05700
Br2670     Br  0.95214437  0.57873180  0.55194368    -0.00100
Br2671     Br  0.80248798  0.64785728  0.55306492     0.00400
Br2672     Br  0.90988258  0.66478612  0.46011288    -0.04100
Br2673     Br  0.91236556  0.56510080  0.42002694     0.00500
Br2674     Br  0.91298416  0.62987785  0.56121655    -0.03400
Br2675     Br  0.84546220  0.60076689  0.54341504    -0.04200
Br2676     Br  0.86319803  0.70872591  0.45816890    -0.00200
C2677       C  0.56411647  0.57498462  0.48162286     0.01200
C2678       C  0.57216963  0.58072262  0.51387114     0.04000
C2679       C  0.59225078  0.59860783  0.51905413    -0.12100
C2680       C  0.60271542  0.61248324  0.49221288     0.23300
C2681       C  0.59348696  0.60776475  0.46010055    -0.12600
C2682       C  0.57497738  0.58833266  0.45470307     0.04700
C2683       C  0.62326025  0.63212254  0.49763052     0.27100
C2684       C  0.61680834  0.65532423  0.51339294    -0.13300
C2685       C  0.63634455  0.67381481  0.51884552     0.05200
C2686       C  0.66184774  0.67056560  0.50512263    -0.09300
C2687       C  0.66793659  0.64744129  0.48829702     0.06000
C2688       C  0.64908851  0.62790042  0.48609931    -0.13700
Br2689     Br  0.60569190  0.62837252  0.42360997    -0.05700
Br2690     Br  0.55537608  0.56414946  0.55093278    -0.00100
Br2691     Br  0.62798420  0.70268211  0.54678041     0.00400
Br2692     Br  0.65848104  0.59537849  0.46641182    -0.04100
Br2693     Br  0.56438861  0.57997009  0.41054447     0.00500
Br2694     Br  0.60564224  0.60367696  0.56288354    -0.03400
Br2695     Br  0.58076703  0.66235120  0.52601429    -0.04200
Br2696     Br  0.70099683  0.64257821  0.46528081    -0.00200
C2697       C  0.65562979  0.84105785  0.49965070     0.01200
C2698       C  0.65924935  0.86438100  0.51678953     0.04000
C2699       C  0.64014465  0.88377753  0.51500067    -0.12100
C2700       C  0.61695206  0.87971164  0.49720663     0.23300
C2701       C  0.61231713  0.85598000  0.48211300    -0.12600
C2702       C  0.63185263  0.83687660  0.48248481     0.04700
C2703       C  0.59812009  0.90095425  0.49270533     0.27100
C2704       C  0.57995504  0.90708374  0.51777070    -0.13300
C2705       C  0.56251174  0.92769012  0.51349097     0.05200
C2706       C  0.56241809  0.94131807  0.48352612    -0.09300
C2707       C  0.58057968  0.93517533  0.45847699     0.06000
C2708       C  0.59876365  0.91527944  0.46330594    -0.13700
Br2709     Br  0.57900923  0.84987442  0.46094959    -0.05700
Br2710     Br  0.68962400  0.86996333  0.54415894    -0.00100
Br2711     Br  0.53903560  0.93761062  0.54876296     0.00400
Br2712     Br  0.62471792  0.90769763  0.42980261    -0.04100
Br2713     Br  0.62619928  0.80604013  0.45732348     0.00500
Br2714     Br  0.64566751  0.91613158  0.53686420    -0.03400
Br2715     Br  0.57886724  0.88703627  0.55766851    -0.04200
Br2716     Br  0.58024158  0.95386608  0.41749352    -0.00200
C2717       C  0.92750216  0.94203284  0.47824511     0.01200
C2718       C  0.91777089  0.93644406  0.51003319     0.04000
C2719       C  0.89855218  0.91752778  0.51426602    -0.12100
C2720       C  0.89028796  0.90305610  0.48703226     0.23300
C2721       C  0.90108753  0.90766659  0.45556643    -0.12600
C2722       C  0.91891216  0.92779583  0.45096280     0.04700
C2723       C  0.86949378  0.88365407  0.49106681     0.27100
C2724       C  0.87492866  0.86046556  0.50730896    -0.13300
C2725       C  0.85497872  0.84226142  0.51146987     0.05200
C2726       C  0.83014580  0.84602661  0.49640932    -0.09300
C2727       C  0.82517635  0.86908776  0.47899296     0.06000
C2728       C  0.84439452  0.88828478  0.47784752    -0.13700
Br2729     Br  0.89158405  0.88617770  0.41887914    -0.05700
Br2730     Br  0.93075285  0.95472684  0.54785188    -0.00100
Br2731     Br  0.86205089  0.81301273  0.53935367     0.00400
Br2732     Br  0.83655545  0.92102081  0.45769444    -0.04100
Br2733     Br  0.93154334  0.93589718  0.40733993     0.00500
Br2734     Br  0.88328162  0.91175835  0.55728008    -0.03400
Br2735     Br  0.91002791  0.85331217  0.52308994    -0.04200
Br2736     Br  0.79333129  0.87423888  0.45397969    -0.00200
C2737       C  0.65604013  0.75356709  0.39657424     0.01200
C2738       C  0.65017506  0.77489298  0.37653339     0.04000
C2739       C  0.62729145  0.77503234  0.35710544    -0.12100
C2740       C  0.61090223  0.75332366  0.35620152     0.23300
C2741       C  0.61726245  0.73163919  0.37529240    -0.12600
C2742       C  0.63946843  0.73192582  0.39588011     0.04700
C2743       C  0.58779281  0.75278804  0.33382871     0.27100
C2744       C  0.56224013  0.75798575  0.34570329    -0.13300
C2745       C  0.54031018  0.75638709  0.32449633     0.05200
C2746       C  0.54386202  0.74914421  0.29106668    -0.09300
C2747       C  0.57001659  0.74735843  0.27886653     0.06000
C2748       C  0.59163952  0.74791149  0.30023413    -0.13700
Br2749     Br  0.59550958  0.70150273  0.37300312    -0.05700
Br2750     Br  0.67311516  0.80420200  0.37625210    -0.00100
Br2751     Br  0.50636321  0.76567006  0.34203308     0.00400
Br2752     Br  0.62678554  0.74156659  0.28356990    -0.04100
Br2753     Br  0.64742925  0.70237294  0.42267793     0.00500
Br2754     Br  0.61788068  0.80517480  0.33222875    -0.03400
Br2755     Br  0.55758051  0.76711310  0.39137334    -0.04200
Br2756     Br  0.57708713  0.74822605  0.23252062    -0.00200
C2757       C  0.83519260  0.75562630  0.39411612     0.01200
C2758       C  0.83751069  0.73434383  0.37291183     0.04000
C2759       C  0.85985369  0.73155175  0.35243997    -0.12100
C2760       C  0.88022823  0.74980203  0.35327633     0.23300
C2761       C  0.87778877  0.77124244  0.37405491    -0.12600
C2762       C  0.85531940  0.77426808  0.39422371     0.04700
C2763       C  0.90409616  0.74659912  0.33205363     0.27100
C2764       C  0.92640706  0.73342740  0.34388879    -0.13300
C2765       C  0.94876169  0.73008334  0.32350410     0.05200
C2766       C  0.94952514  0.74111188  0.29172212    -0.09300
C2767       C  0.92615642  0.75191890  0.27892683     0.06000
C2768       C  0.90392737  0.75550009  0.29934865    -0.13700
Br2769     Br  0.90556640  0.79629156  0.37506812    -0.05700
Br2770     Br  0.81104627  0.70798093  0.37345638    -0.00100
Br2771     Br  0.97657972  0.70727895  0.33738898     0.00400
Br2772     Br  0.87277370  0.77196993  0.28235023    -0.04100
Br2773     Br  0.85200192  0.80436993  0.42150064     0.00500
Br2774     Br  0.86290996  0.70239531  0.32359851    -0.03400
Br2775     Br  0.92584765  0.71924713  0.38772927    -0.04200
Br2776     Br  0.92289898  0.75811222  0.23232528    -0.00200
C2777       C  0.75306109  0.95725416  0.29193219     0.01200
C2778       C  0.77205766  0.95269397  0.31675766     0.04000
C2779       C  0.77101776  0.93026259  0.33609562    -0.12100
C2780       C  0.75340880  0.91050318  0.32812444     0.23300
C2781       C  0.73700013  0.91342216  0.30053932    -0.12600
C2782       C  0.73629007  0.93681189  0.28297995     0.04700
C2783       C  0.75081425  0.88741511  0.34980829     0.27100
C2784       C  0.76892357  0.86688329  0.34775310    -0.13300
C2785       C  0.76627268  0.84534642  0.36863543     0.05200
C2786       C  0.74528899  0.84398879  0.39153604    -0.09300
C2787       C  0.72702900  0.86451394  0.39326383     0.06000
C2788       C  0.72983558  0.88604685  0.37257908    -0.13700
Br2789     Br  0.71454676  0.88543727  0.28789078    -0.05700
Br2790     Br  0.80132761  0.97577915  0.32235793    -0.00100
Br2791     Br  0.79265265  0.81867782  0.36756793     0.00400
Br2792     Br  0.70513884  0.91416865  0.37582549    -0.04100
Br2793     Br  0.71171674  0.94011646  0.24740611     0.00500
Br2794     Br  0.79237468  0.92746633  0.37501684    -0.03400
Br2795     Br  0.79760879  0.86847028  0.31658348    -0.04200
Br2796     Br  0.69784887  0.86335376  0.42390716    -0.00200
C2797       C  0.74703301  0.55541968  0.30087463     0.01200
C2798       C  0.73471676  0.55574084  0.33251805     0.04000
C2799       C  0.73613691  0.57779571  0.35257317    -0.12100
C2800       C  0.74820463  0.60022946  0.34074331     0.23300
C2801       C  0.75699936  0.60113493  0.30798447    -0.12600
C2802       C  0.75428389  0.57960616  0.28758460     0.04700
C2803       C  0.74856652  0.62388419  0.36121761     0.27100
C2804       C  0.72918110  0.64298790  0.35681241    -0.13300
C2805       C  0.72973668  0.66561712  0.37569106     0.05200
C2806       C  0.74907168  0.66882283  0.40017765    -0.09300
C2807       C  0.76860641  0.64969953  0.40424136     0.06000
C2808       C  0.76842889  0.62746081  0.38470169    -0.13700
Br2809     Br  0.77170514  0.63244585  0.29053145    -0.05700
Br2810     Br  0.71011918  0.52951422  0.34592532    -0.00100
Br2811     Br  0.70343094  0.69166628  0.36835889     0.00400
Br2812     Br  0.79537957  0.60169689  0.39010810    -0.04100
Br2813     Br  0.75297096  0.58592412  0.24103417     0.00500
Br2814     Br  0.72006637  0.57805490  0.39575278    -0.03400
Br2815     Br  0.70132129  0.63761130  0.32550212    -0.04200
Br2816     Br  0.79649543  0.65424636  0.43566859    -0.00200
loop_ 
_geom_bond_atom_site_label_1 
_geom_bond_atom_site_label_2 
_geom_bond_distance 
_geom_bond_site_symmetry_2 
_ccdc_geom_bond_type 
O1          Zr37   2.460       .  S
O1           C12   1.297       .  A
O2          Zr36   2.455       .  S
O2           C13   1.295       .  A
O3           Zr9   2.424       .  S
O3           C14   1.289       .  A
O4           Zr9   2.430       .  S
O4           C15   1.289       .  A
O5          Zr39   2.442       .  S
O5           C15   1.292       .  A
O6          Zr38   2.436       .  S
O6           C14   1.290       .  A
O7           Zr9   2.446       .  S
O7           C13   1.294       .  A
O8           Zr9   2.440       .  S
O8           C12   1.293       .  A
Zr9          O10   2.334       .  S
Zr9          O11   2.341       .  S
Zr9          O19   2.339       .  S
Zr9          O17   2.339       .  S
O10         Zr36   2.357       .  S
O10         Zr39   2.336       .  S
O11         Zr37   2.354       .  S
O11         Zr38   2.334       .  S
C12         C694   1.489       .  S
C13         C514   1.490       .  S
C14         C554   1.485       .  S
C15         C574   1.490       .  S
H16          O17   0.958       .  S
O17         Zr36   2.352       .  S
O17         Zr38   2.338       .  S
H18          O19   0.967       .  S
O19         Zr37   2.356       .  S
O19         Zr39   2.333       .  S
O20         Zr36   2.466       .  S
O20          C43   1.295       .  A
O21         Zr37   2.483       .  S
O21          C44   1.301       .  A
O22         Zr38   2.433       .  S
O22          C45   1.291       .  A
O23         Zr39   2.428       .  S
O23          C46   1.291       .  A
O24         Zr39   2.435       .  S
O24          C47   1.291       .  A
O25         Zr38   2.428       .  S
O25          C48   1.290       .  A
O26         Zr40   2.428       .  S
O26          C49   1.289       .  A
O27         Zr40   2.426       .  S
O27          C50   1.289       .  A
O28         Zr38   2.424       .  S
O28          C49   1.288       .  A
O29         Zr39   2.427       .  S
O29          C50   1.289       .  A
O30         Zr36   2.471       .  S
O30          C45   1.298       .  A
O31         Zr37   2.469       .  S
O31          C48   1.298       .  A
O32         Zr37   2.463       .  S
O32          C47   1.297       .  A
O33         Zr36   2.468       .  S
O33          C46   1.299       .  A
O34         Zr40   2.425       .  S
O34          C43   1.287       .  A
O35         Zr40   2.419       .  S
O35          C44   1.288       .  A
Zr36         O42   2.341       .  S
Zr36         O54   2.349       .  S
Zr37         O41   2.347       .  S
Zr37         O52   2.342       .  S
Zr38         O42   2.337       .  S
Zr38         O52   2.341       .  S
Zr39         O41   2.341       .  S
Zr39         O54   2.348       .  S
Zr40         O41   2.336       .  S
Zr40         O42   2.334       .  S
Zr40         O54   2.333       .  S
Zr40         O52   2.338       .  S
C43         C534   1.513       .  S
C44         C674   1.492       .  S
C45         C465   1.484       .  S
C46         C485   1.491       .  S
C47         C625   1.482       .  S
C48         C645   1.487       .  S
C49         C614   1.482       .  S
C50         C585   1.480       .  S
H51          O52   0.966       .  S
H53          O54   0.965       .  S
N55          C60   1.352       .  A
N55         C763   1.352   1_545  A
N55          H87   1.037       .  S
N56          C64   1.350       .  A
N56        C1471   1.349       .  A
N57          C62   1.352       .  A
N57         C765   1.352   1_545  A
N57          H88   1.035       .  S
N58          C66   1.349       .  A
N58        C1473   1.350       .  A
C59         N759   1.352       .  A
C59          C67   1.386       .  A
C59          C75   1.412       .  A
C60          C76   1.415       .  A
C60          C68   1.388       .  A
C61         N761   1.352       .  A
C61          C69   1.388       .  A
C61          C78   1.417       .  A
C62          C77   1.414       .  A
C62          C70   1.387       .  A
C63        N1464   1.349   1_455  A
C63          C75   1.410       .  A
C63          C71   1.386       .  A
C64          C78   1.413       .  A
C64          C72   1.388       .  A
C65        N1466   1.350   1_455  A
C65          C73   1.386       .  A
C65          C76   1.411       .  A
C66          C74   1.387       .  A
C66          C77   1.411       .  A
C67         C772   1.371       .  A
C67          H79   1.082       .  S
C68         C771   1.371   1_545  A
C68          H80   1.082       .  S
C69         C774   1.371       .  A
C69          H81   1.082       .  S
C70         C773   1.371   1_545  A
C70          H82   1.082       .  S
C71        C1480   1.367   1_455  A
C71          H83   1.083       .  S
C72        C1479   1.367       .  A
C72          H84   1.082       .  S
C73        C1482   1.369   1_455  A
C73          H85   1.082       .  S
C74        C1481   1.369       .  A
C74          H86   1.082       .  S
C75         C594   1.481       .  S
C76         C565   1.485       .  S
C77         C545   1.482       .  S
C78         C605   1.484       .  S
O89        Zr125   2.447       .  S
O89         C100   1.293       .  A
O90        Zr124   2.453       .  S
O90         C101   1.295       .  A
O91       Zr1505   2.434       .  S
O91         C102   1.291       .  A
O92         Zr97   2.422       .  S
O92         C103   1.287       .  A
O93        Zr127   2.437       .  S
O93         C103   1.290       .  A
O94        Zr126   2.428       .  S
O94         C102   1.290       .  A
O95         Zr97   2.446       .  S
O95         C101   1.294       .  A
O96         Zr97   2.457   1_556  S
O96         C100   1.295       .  A
Zr97       O1499   2.434       .  S
Zr97         O98   2.341       .  S
Zr97        O107   2.342   1_554  S
Zr97       O1507   2.342   1_554  S
Zr97       O1513   2.339       .  S
O98        Zr124   2.349       .  S
O98        Zr127   2.332       .  S
O99        Zr126   2.343   1_556  S
O99       Zr1505   2.342   1_556  S
O99       Zr1533   2.361       .  S
C100        C454   1.480       .  S
C101        C265   1.486       .  S
C102        C305   1.479       .  S
C103        C325   1.489       .  S
H104        O105   0.965       .  S
O105       Zr126   2.339       .  S
O105      Zr1505   2.339       .  S
O105      Zr1532   2.351       .  S
H106        O107   0.964       .  S
O107       Zr125   2.350       .  S
O107       Zr127   2.335   1_556  S
O108       Zr828   2.460   1_545  S
O108        C131   1.295       .  A
O109       Zr829   2.467   1_545  S
O109        C132   1.297       .  A
O110       Zr126   2.450       .  S
O110        C133   1.295       .  A
O111       Zr127   2.421       .  S
O111        C134   1.288       .  A
O112       Zr127   2.420   1_556  S
O112        C839   1.288       .  A
O113       Zr126   2.448   1_556  S
O113        C840   1.293       .  A
O114      Zr1536   2.428   1_556  S
O114        C137   1.289       .  A
O115       Zr128   2.429   1_556  S
O115        C138   1.289       .  A
O116       Zr830   2.436   1_546  S
O116        C137   1.291       .  A
O117       Zr831   2.435   1_545  S
O117        C138   1.290   1_554  A
O118      Zr1532   2.454       .  S
O118        C133   1.295       .  A
O119      Zr2237   2.471       .  S
O119        C136   1.298       .  A
O120       Zr829   2.468       .  S
O120        C135   1.298       .  A
O121       Zr124   2.470       .  S
O121        C134   1.298       .  A
O122       Zr128   2.430       .  S
O122        C131   1.289       .  A
O123       Zr128   2.423   1_556  S
O123        C132   1.289       .  A
Zr124       O812   2.460       .  S
Zr124      O1526   2.454       .  S
Zr124      O1513   2.351       .  S
Zr124      O2242   2.349       .  S
Zr124       O846   2.343       .  S
Zr125       O813   2.467       .  S
Zr125      O2231   2.471       .  S
Zr125       O824   2.468       .  S
Zr125      O1507   2.361       .  S
Zr125       O833   2.342       .  S
Zr125      O2252   2.345       .  S
Zr126       O820   2.436   1_554  S
Zr126       O834   2.341       .  S
Zr126       O844   2.344   1_554  S
Zr127       O821   2.435       .  S
Zr127       O833   2.333   1_554  S
Zr127       O846   2.340       .  S
Zr128      O1522   2.428   1_554  S
Zr128       O129   2.332   1_554  S
Zr128       O142   2.335       .  S
Zr128      O1538   2.335       .  S
Zr128      O1548   2.338   1_554  S
O129       Zr829   2.342   1_545  S
O129       Zr831   2.333   1_546  S
O130      Zr2236   2.349   1_545  S
O130       Zr830   2.341   1_545  S
O130      Zr1536   2.335       .  S
C131        C285   1.503       .  S
C132        C434   1.500       .  S
C133        C225   1.487       .  S
C134        C254   1.498       .  S
C135        O816   1.288       .  A
C135       C1089   1.490       .  S
C136        O817   1.293       .  A
C136       C1109   1.509       .  S
C137        C365   1.464       .  S
C138        C345   1.485       .  S
H139        O140   0.960       .  S
O140      Zr2237   2.345   1_545  S
O140       Zr830   2.344   1_546  S
O140      Zr1536   2.338   1_556  S
H141        O142   0.964       .  S
O142       Zr828   2.343   1_545  S
O142       Zr831   2.340   1_545  S
N143        C148   1.349   1_556  A
N143        C147   1.350   1_556  A
N143        H175   1.042       .  S
N144        C151   1.349       .  A
N144        C152   1.347       .  A
N145        C150   1.350       .  A
N145        C149   1.351       .  A
N145        H176   1.040       .  S
N146        C153   1.348       .  A
N146        C154   1.348       .  A
C147        C155   1.388       .  A
C147        C163   1.413   1_554  A
C148        C164   1.408       .  A
C148        C156   1.386       .  A
C149        C157   1.386       .  A
C149        C166   1.411       .  A
C150        C165   1.412       .  A
C150        C158   1.388   1_556  A
C151        C163   1.414       .  A
C151        C159   1.388       .  A
C152        C166   1.407       .  A
C152        C160   1.385       .  A
C153        C161   1.387       .  A
C153        C164   1.409   1_556  A
C154        C162   1.386       .  A
C154        C165   1.408       .  A
C155        C156   1.380       .  A
C155        H167   1.082       .  S
C156        H168   1.082       .  S
C157        C158   1.376   1_556  A
C157        H169   1.082   1_556  S
C158        H170   1.082       .  S
C159        C160   1.377       .  A
C159        H171   1.082       .  S
C160        H172   1.082       .  S
C161        C162   1.374       .  A
C161        H173   1.082       .  S
C162        H174   1.082       .  S
C163        C374   1.494       .  S
C164        C314   1.482       .  S
C165        C334   1.480       .  S
C166        C354   1.484       .  S
C177        C183   1.538       .  S
C177        C181   1.530       .  S
C177       C1586   1.550       .  S
C177        C294   1.555       .  S
C178       C1585   1.550   1_455  S
C178        H185   1.082       .  S
C178        C179   1.371       .  D
C179       C1588   1.545   1_455  S
C179        C634   1.515       .  S
C180        C184   1.552       .  S
C180        C182   1.567       .  S
C180       C1587   1.545       .  S
C180        H186   1.099       .  S
C181        H187   1.086       .  S
C181        C182   1.360       .  D
C182        C654   1.495       .  S
C183        H188   1.085       .  S
C183        C184   1.373       .  D
C184        C274   1.523       .  S
C189        C190   1.548       .  S
C189        C193   1.524       .  S
C189        C899   1.543       .  S
C189        C685   1.553       .  S
C190        H197   1.085       .  S
C190        C895   1.379       .  D
C191        C192   1.553       .  S
C191        C894   1.379       .  D
C191        C245   1.521       .  S
C192        C196   1.554       .  S
C192        C194   1.549       .  S
C192        H198   1.104       .  S
C193        H199   1.087       .  S
C193        C898   1.356       .  D
C194        C897   1.356       .  D
C194        C234   1.492       .  S
C195        C893   1.543       .  S
C195        H200   1.083       .  S
C195        C196   1.372       .  D
C196        C665   1.511       .  S
C201        C202   1.544       .  S
C201        C207   1.539       .  S
C201       C1613   1.538       .  S
C201        C425   1.561       .  S
C202        H209   1.082       .  S
C202        C203   1.370       .  D
C203        C204   1.552       .  S
C203        C474   1.500       .  S
C204        C208   1.550       .  S
C204       C1614   1.547       .  S
C204        H210   1.106       .  S
C205       C1609   1.538   1_455  S
C205        H211   1.085       .  S
C205        C206   1.361       .  D
C206       C1612   1.547   1_455  S
C206        C494   1.500       .  S
C207        H212   1.084       .  S
C207        C208   1.375       .  D
C208        C445   1.520       .  S
C213        C214   1.541       .  S
C213        C217   1.530       .  S
C213        C923   1.549       .  S
C213        C505   1.559       .  S
C214        H221   1.081       .  S
C214        C919   1.367       .  D
C215        C216   1.553       .  S
C215        C918   1.367       .  D
C215        C414   1.512       .  S
C216        C220   1.541       .  S
C216        C218   1.554       .  S
C216        H222   1.107       .  S
C217        H223   1.086       .  S
C217        C922   1.370       .  D
C218        C921   1.370       .  D
C218        C394   1.503       .  S
C219        C917   1.549       .  S
C219        H224   1.084       .  S
C219        C220   1.369       .  D
C220        C525   1.496       .  S
C225        C226   1.412       .  A
C225        C934   1.412       .  A
C226        C227   1.410       .  A
C226       Br238   1.928       .  S
C227        C228   1.411       .  A
C227       Br242   1.931       .  S
C228        C231   1.496       .  S
C228        C933   1.413       .  A
C229        C230   1.412       .  A
C229        C932   1.413   1_545  A
C229       Br237   1.930       .  S
C230        C929   1.412   1_545  A
C230       Br241   1.930       .  S
C231        C232   1.410       .  A
C231        C940   1.413       .  A
C232        C233   1.410       .  A
C232       Br243   1.931       .  S
C233        C234   1.415       .  A
C233       Br239   1.933       .  S
C234        C939   1.410       .  A
C235        C236   1.412       .  A
C235        C938   1.410       .  A
C235       Br244   1.927       .  S
C236        C935   1.413   1_545  A
C236       Br240   1.931       .  S
C245        C246   1.430       .  A
C245        C954   1.422       .  A
C246        C247   1.415       .  A
C246       Br258   1.925       .  S
C247        C248   1.406       .  A
C247       Br262   1.933       .  S
C248        C251   1.491       .  S
C248        C953   1.402       .  A
C249        C250   1.403       .  A
C249        C952   1.402   1_545  A
C249       Br257   1.936       .  S
C250        C949   1.422       .  A
C250       Br261   1.918       .  S
C251        C252   1.410       .  A
C251        C256   1.407       .  A
C252        C253   1.414       .  A
C252       Br263   1.930       .  S
C253        C254   1.419       .  A
C253       Br259   1.931       .  S
C254        C255   1.423       .  A
C255        C256   1.404       .  A
C255       Br968   1.934       .  S
C256       Br964   1.938       .  S
Br260       C960   1.938   1_545  S
Br264       C959   1.934   1_545  S
C265        C270   1.412       .  A
C265       C1674   1.413       .  A
C266        C267   1.413       .  A
C266       C1673   1.413   1_455  A
C266       Br278   1.929       .  S
C267       C1676   1.411   1_455  A
C267       Br282   1.929       .  S
C268        C271   1.492       .  S
C268        C269   1.408       .  A
C268       C1675   1.411       .  A
C269        C270   1.407       .  A
C269       Br277   1.931       .  S
C270       Br281   1.928       .  S
C271        C276   1.404       .  A
C271       C1680   1.402       .  A
C272        C273   1.410       .  A
C272       C1679   1.402   1_455  A
C272       Br283   1.937       .  S
C273       C1682   1.431   1_455  A
C273       Br279   1.933       .  S
C274        C275   1.430       .  A
C274       C1681   1.431       .  A
C275        C276   1.415       .  A
C275       Br284   1.928       .  S
C276       Br280   1.934       .  S
C285        C286   1.424       .  A
C285       C1698   1.426       .  A
C286        C287   1.414       .  A
C286       Br298   1.933       .  S
C287        C288   1.407       .  A
C287       Br302   1.930       .  S
C288        C291   1.490       .  S
C288       C1697   1.405       .  A
C289        C290   1.406       .  A
C289       C1696   1.405       .  A
C289       Br297   1.938       .  S
C290       C1693   1.426       .  A
C290       Br301   1.936       .  S
C291        C292   1.407       .  A
C291       C1704   1.402       .  A
C292        C293   1.414       .  A
C292       Br303   1.933       .  S
C293        C294   1.428       .  A
C293       Br299   1.932       .  S
C294       C1703   1.423       .  A
C295        C296   1.405       .  A
C295       C1702   1.423   1_455  A
C295       Br304   1.923       .  S
C296       C1699   1.402   1_455  A
C296       Br300   1.934       .  S
C305        C306   1.415   1_554  A
C305        C310   1.417       .  A
C306        C307   1.404       .  A
C306       Br318   1.934       .  S
C307        C308   1.406   1_556  A
C307       Br322   1.931       .  S
C308        C311   1.477       .  S
C308        C309   1.405       .  A
C309        C310   1.404       .  A
C309       Br317   1.933       .  S
C310       Br321   1.931       .  S
C311        C312   1.410   1_554  A
C311        C316   1.408       .  A
C312        C313   1.404       .  A
C312       Br323   1.933       .  S
C313        C314   1.409   1_556  A
C313       Br319   1.930       .  S
C314        C315   1.409       .  A
C315        C316   1.404       .  A
C315       Br324   1.929       .  S
C316       Br320   1.929       .  S
C325        C326   1.420       .  A
C325        C330   1.423   1_554  A
C326        C327   1.405       .  A
C326       Br338   1.936       .  S
C327        C328   1.407   1_554  A
C327       Br342   1.935       .  S
C328        C331   1.480       .  S
C328        C329   1.406       .  A
C329        C330   1.405       .  A
C329       Br337   1.935       .  S
C330       Br341   1.936       .  S
C331        C332   1.410   1_556  A
C331        C336   1.411       .  A
C332        C333   1.403       .  A
C332       Br343   1.932       .  S
C333        C334   1.408   1_554  A
C333       Br339   1.929       .  S
C334        C335   1.407       .  A
C335        C336   1.404       .  A
C335       Br344   1.930       .  S
C336       Br340   1.931       .  S
C345        C346   1.417       .  A
C345        C350   1.417   1_556  A
C346        C347   1.407       .  A
C346       Br358   1.931       .  S
C347        C348   1.406       .  A
C347       Br362   1.931       .  S
C348        C351   1.483       .  S
C348        C349   1.408   1_556  A
C349        C350   1.406       .  A
C349       Br357   1.932       .  S
C350       Br361   1.935       .  S
C351        C352   1.412       .  A
C351        C356   1.408   1_556  A
C352        C353   1.408       .  A
C352       Br363   1.930       .  S
C353        C354   1.409       .  A
C353       Br359   1.928       .  S
C354        C355   1.409   1_556  A
C355        C356   1.403       .  A
C355       Br364   1.931       .  S
C356       Br360   1.931       .  S
C365        C366   1.409       .  A
C365        C370   1.404   1_556  A
C366        C367   1.406       .  A
C366       Br378   1.932       .  S
C367        C368   1.413       .  A
C367       Br382   1.930       .  S
C368        C371   1.482       .  S
C368        C369   1.411   1_556  A
C369        C370   1.401       .  A
C369       Br377   1.932       .  S
C370       Br381   1.925       .  S
C371        C372   1.409   1_556  A
C371        C376   1.408       .  A
C372        C373   1.403       .  A
C372       Br383   1.933       .  S
C373        C374   1.414   1_554  A
C373       Br379   1.933       .  S
C374        C375   1.417       .  A
C375        C376   1.406       .  A
C375       Br384   1.933       .  S
C376       Br380   1.933       .  S
C385        C839   1.490       .  S
C385        C390   1.420       .  A
C385       C1090   1.415       .  A
C386        C387   1.412       .  A
C386       C1089   1.415   1_545  A
C386       Br398   1.931       .  S
C387       C1092   1.410   1_545  A
C387       Br402   1.930       .  S
C388        C391   1.490       .  S
C388        C389   1.406       .  A
C388       C1091   1.410       .  A
C389        C390   1.407       .  A
C389       Br397   1.933       .  S
C390       Br401   1.933       .  S
C391        C396   1.409       .  A
C391       C1096   1.406       .  A
C392        C393   1.407       .  A
C392       C1095   1.406   1_545  A
C392       Br403   1.931       .  S
C393       C1098   1.416   1_545  A
C393       Br399   1.928       .  S
C394        C395   1.416       .  A
C394       C1097   1.416       .  A
C395        C396   1.413       .  A
C395       Br404   1.920       .  S
C396       Br400   1.931       .  S
C405        C840   1.509       .  S
C405        C410   1.424       .  A
C405       C1110   1.426       .  A
C406        C407   1.409       .  A
C406       C1109   1.426   1_545  A
C406       Br418   1.934       .  S
C407       C1112   1.407   1_545  A
C407       Br422   1.938       .  S
C408        C411   1.498       .  S
C408        C409   1.410       .  A
C408       C1111   1.407       .  A
C409        C410   1.418       .  A
C409       Br417   1.932       .  S
C410       Br421   1.930       .  S
C411        C416   1.409       .  A
C411       C1116   1.408       .  A
C412        C413   1.411       .  A
C412       C1115   1.408   1_545  A
C412       Br423   1.932       .  S
C413       C1118   1.429       .  A
C413       Br419   1.939       .  S
C414        C415   1.418       .  A
C414       C1117   1.429       .  A
C415        C416   1.411       .  A
C415       Br424   1.928       .  S
C416       Br420   1.931       .  S
C425        C426   1.427       .  A
C425       C1838   1.435       .  A
C426        C427   1.410       .  A
C426       Br438   1.927       .  S
C427        C428   1.403       .  A
C427       Br442   1.934       .  S
C428        C431   1.492       .  S
C428       C1837   1.404       .  A
C429        C430   1.414       .  A
C429       C1836   1.404   1_455  A
C429       Br437   1.937       .  S
C430       C1833   1.435   1_455  A
C430       Br441   1.936       .  S
C431        C432   1.406       .  A
C431       C1844   1.409       .  A
C432        C433   1.405       .  A
C432       Br443   1.937       .  S
C433        C434   1.423       .  A
C433       Br439   1.931       .  S
C434       C1843   1.420       .  A
C435        C436   1.414       .  A
C435       C1842   1.420   1_455  A
C435       Br444   1.932       .  S
C436       C1839   1.409   1_455  A
C436       Br440   1.928       .  S
C445        C446   1.428       .  A
C445       C1858   1.425       .  A
C446        C447   1.415       .  A
C446       Br458   1.927       .  S
C447        C448   1.407       .  A
C447       Br462   1.932       .  S
C448        C451   1.496       .  S
C448       C1857   1.406       .  A
C449        C450   1.407       .  A
C449       C1856   1.406   1_455  A
C449       Br457   1.935       .  S
C450       C1853   1.425   1_455  A
C450       Br461   1.930       .  S
C451        C456   1.413       .  A
C451       C1860   1.413       .  A
C452        C453   1.409       .  A
C452       C1859   1.413   1_455  A
C452       Br463   1.930       .  S
C453       C1862   1.407       .  A
C453       Br459   1.927       .  S
C454        C455   1.410       .  A
C454       C1861   1.407       .  A
C455        C456   1.411       .  A
C455       Br464   1.927       .  S
C456       Br460   1.930       .  S
C465        C466   1.412       .  A
C465        C470   1.411       .  A
C466        C467   1.415       .  A
C466       Br478   1.929       .  S
C467        C468   1.413       .  A
C467       Br482   1.928       .  S
C468        C471   1.495       .  S
C468        C469   1.409       .  A
C469        C470   1.407       .  A
C469       Br477   1.931       .  S
C470       Br481   1.930       .  S
C471        C472   1.412       .  A
C471        C476   1.407       .  A
C472        C473   1.413       .  A
C472       Br483   1.929       .  S
C473        C474   1.411       .  A
C473       Br479   1.923       .  S
C474        C475   1.418       .  A
C475        C476   1.410       .  A
C475       Br484   1.929       .  S
C476       Br480   1.931       .  S
C485        C486   1.419       .  A
C485        C490   1.414       .  A
C486        C487   1.409       .  A
C486       Br498   1.932       .  S
C487        C488   1.407       .  A
C487       Br502   1.931       .  S
C488        C491   1.494       .  S
C488        C489   1.411       .  A
C489        C490   1.412       .  A
C489       Br497   1.928       .  S
C490       Br501   1.932       .  S
C491        C492   1.409       .  A
C491        C496   1.408       .  A
C492        C493   1.413       .  A
C492       Br503   1.930       .  S
C493        C494   1.416       .  A
C493       Br499   1.925       .  S
C494        C495   1.418       .  A
C495        C496   1.410       .  A
C495       Br504   1.932       .  S
C496       Br500   1.931       .  S
C505        C506   1.428       .  A
C505        C510   1.426       .  A
C506        C507   1.410       .  A
C506       Br518   1.933       .  S
C507        C508   1.404       .  A
C507       Br522   1.932       .  S
C508        C511   1.493       .  S
C508        C509   1.406       .  A
C509        C510   1.413       .  A
C509       Br517   1.933       .  S
C510       Br521   1.927       .  S
C511        C512   1.408       .  A
C511        C516   1.411       .  A
C512        C513   1.408       .  A
C512       Br523   1.930       .  S
C513        C514   1.414       .  A
C513       Br519   1.931       .  S
C514        C515   1.415       .  A
C515        C516   1.413       .  A
C515       Br524   1.928       .  S
C516       Br520   1.930       .  S
C525        C526   1.414       .  A
C525        C530   1.413       .  A
C526        C527   1.409       .  A
C526       Br538   1.929       .  S
C527        C528   1.412       .  A
C527       Br542   1.932       .  S
C528        C531   1.496       .  S
C528        C529   1.410       .  A
C529        C530   1.411       .  A
C529       Br537   1.931       .  S
C530       Br541   1.921       .  S
C531        C532   1.404       .  A
C531        C536   1.410       .  A
C532        C533   1.407       .  A
C532       Br543   1.937       .  S
C533        C534   1.431       .  A
C533       Br539   1.940       .  S
C534        C535   1.427       .  A
C535        C536   1.416       .  A
C535       Br544   1.935       .  S
C536       Br540   1.932       .  S
C545        C546   1.411       .  A
C545        C550   1.407       .  A
C546        C547   1.404       .  A
C546       Br558   1.931       .  S
C547        C548   1.408       .  A
C547       Br562   1.930       .  S
C548        C551   1.476       .  S
C548        C549   1.409       .  A
C549        C550   1.401       .  A
C549       Br557   1.931       .  S
C550       Br561   1.930       .  S
C551        C552   1.405       .  A
C551        C556   1.405       .  A
C552        C553   1.405       .  A
C552       Br563   1.933       .  S
C553        C554   1.420       .  A
C553       Br559   1.935       .  S
C554        C555   1.419       .  A
C555        C556   1.404       .  A
C555       Br564   1.933       .  S
C556       Br560   1.934       .  S
C565        C566   1.409       .  A
C565        C570   1.408       .  A
C566        C567   1.404       .  A
C566       Br578   1.933       .  S
C567        C568   1.412       .  A
C567       Br582   1.931       .  S
C568        C571   1.485       .  S
C568        C569   1.413       .  A
C569        C570   1.405       .  A
C569       Br577   1.932       .  S
C570       Br581   1.929       .  S
C571        C572   1.408       .  A
C571        C576   1.408       .  A
C572        C573   1.407       .  A
C572       Br583   1.933       .  S
C573        C574   1.418       .  A
C573       Br579   1.934       .  S
C574        C575   1.421       .  A
C575        C576   1.406       .  A
C575       Br584   1.934       .  S
C576       Br580   1.936       .  S
C585        C586   1.418       .  A
C585        C590   1.417       .  A
C586        C587   1.402       .  A
C586       Br598   1.932       .  S
C587        C588   1.404       .  A
C587       Br602   1.933       .  S
C588        C591   1.474       .  S
C588        C589   1.406       .  A
C589        C590   1.405       .  A
C589       Br597   1.932       .  S
C590       Br601   1.933       .  S
C591        C592   1.407       .  A
C591        C596   1.409       .  A
C592        C593   1.403       .  A
C592       Br603   1.930       .  S
C593        C594   1.410       .  A
C593       Br599   1.930       .  S
C594        C595   1.407       .  A
C595        C596   1.402       .  A
C595       Br604   1.930       .  S
C596       Br600   1.931       .  S
C605        C606   1.412       .  A
C605        C610   1.409       .  A
C606        C607   1.402       .  A
C606       Br618   1.933       .  S
C607        C608   1.409       .  A
C607       Br622   1.933       .  S
C608        C611   1.476       .  S
C608        C609   1.410       .  A
C609        C610   1.402       .  A
C609       Br617   1.933       .  S
C610       Br621   1.930       .  S
C611        C612   1.406       .  A
C611        C616   1.407       .  A
C612        C613   1.402       .  A
C612       Br623   1.934       .  S
C613        C614   1.419       .  A
C613       Br619   1.935       .  S
C614        C615   1.419       .  A
C615        C616   1.403       .  A
C615       Br624   1.934       .  S
C616       Br620   1.936       .  S
C625        C626   1.411       .  A
C625        C630   1.413       .  A
C626        C627   1.410       .  A
C626       Br638   1.928       .  S
C627        C628   1.411       .  A
C627       Br642   1.930       .  S
C628        C631   1.490       .  S
C628        C629   1.409       .  A
C629        C630   1.409       .  A
C629       Br637   1.930       .  S
C630       Br641   1.931       .  S
C631        C632   1.408       .  A
C631        C636   1.402       .  A
C632        C633   1.416       .  A
C632       Br643   1.931       .  S
C633        C634   1.422       .  A
C633       Br639   1.923       .  S
C634        C635   1.419       .  A
C635        C636   1.405       .  A
C635       Br644   1.917       .  S
C636       Br640   1.934       .  S
C645        C646   1.412       .  A
C645        C650   1.415       .  A
C646        C647   1.411       .  A
C646       Br658   1.929       .  S
C647        C648   1.411       .  A
C647       Br662   1.929       .  S
C648        C651   1.493       .  S
C648        C649   1.409       .  A
C649        C650   1.410       .  A
C649       Br657   1.930       .  S
C650       Br661   1.932       .  S
C651        C652   1.410       .  A
C651        C656   1.408       .  A
C652        C653   1.413       .  A
C652       Br663   1.929       .  S
C653        C654   1.414       .  A
C653       Br659   1.931       .  S
C654        C655   1.414       .  A
C655        C656   1.410       .  A
C655       Br664   1.930       .  S
C656       Br660   1.930       .  S
C665        C666   1.420       .  A
C665        C670   1.419       .  A
C666        C667   1.411       .  A
C666       Br678   1.934       .  S
C667        C668   1.409       .  A
C667       Br682   1.929       .  S
C668        C671   1.498       .  S
C668        C669   1.409       .  A
C669        C670   1.414       .  A
C669       Br677   1.931       .  S
C670       Br681   1.924       .  S
C671        C672   1.412       .  A
C671        C676   1.410       .  A
C672        C673   1.415       .  A
C672       Br683   1.928       .  S
C673        C674   1.413       .  A
C673       Br679   1.930       .  S
C674        C675   1.416       .  A
C675        C676   1.410       .  A
C675       Br684   1.932       .  S
C676       Br680   1.932       .  S
C685        C686   1.428       .  A
C685        C690   1.422       .  A
C686        C687   1.415       .  A
C686       Br698   1.934       .  S
C687        C688   1.408       .  A
C687       Br702   1.932       .  S
C688        C691   1.491       .  S
C688        C689   1.403       .  A
C689        C690   1.406       .  A
C689       Br697   1.933       .  S
C690       Br701   1.922       .  S
C691        C692   1.411       .  A
C691        C696   1.407       .  A
C692        C693   1.411       .  A
C692       Br703   1.932       .  S
C693        C694   1.414       .  A
C693       Br699   1.927       .  S
C694        C695   1.415       .  A
C695        C696   1.409       .  A
C695       Br704   1.930       .  S
C696       Br700   1.929       .  S
O705       Zr741   2.460       .  S
O705        C716   1.297       .  A
O706       Zr740   2.455       .  S
O706        C717   1.295       .  A
O707       Zr713   2.424       .  S
O707        C718   1.289       .  A
O708       Zr713   2.430       .  S
O708        C719   1.289       .  A
O709       Zr743   2.442       .  S
O709        C719   1.292       .  A
O710       Zr742   2.436       .  S
O710        C718   1.290       .  A
O711       Zr713   2.446       .  S
O711        C717   1.294       .  A
O712       Zr713   2.440       .  S
O712        C716   1.293       .  A
Zr713       O714   2.334       .  S
Zr713       O715   2.341       .  S
Zr713       O723   2.339       .  S
Zr713       O721   2.339       .  S
O714       Zr740   2.357       .  S
O714       Zr743   2.336       .  S
O715       Zr741   2.354       .  S
O715       Zr742   2.334       .  S
C716       C1398   1.489       .  S
C717       C1218   1.490       .  S
C718       C1258   1.485       .  S
C719       C1278   1.490       .  S
H720        O721   0.958       .  S
O721       Zr740   2.352       .  S
O721       Zr742   2.338       .  S
H722        O723   0.967       .  S
O723       Zr741   2.356       .  S
O723       Zr743   2.333       .  S
O724       Zr740   2.466       .  S
O724        C747   1.295       .  A
O725       Zr741   2.483       .  S
O725        C748   1.301       .  A
O726       Zr742   2.433       .  S
O726        C749   1.291       .  A
O727       Zr743   2.428       .  S
O727        C750   1.291       .  A
O728       Zr743   2.435       .  S
O728        C751   1.291       .  A
O729       Zr742   2.428       .  S
O729        C752   1.290       .  A
O730       Zr744   2.428       .  S
O730        C753   1.289       .  A
O731       Zr744   2.426       .  S
O731        C754   1.289       .  A
O732       Zr742   2.424       .  S
O732        C753   1.288       .  A
O733       Zr743   2.427       .  S
O733        C754   1.289       .  A
O734       Zr740   2.471       .  S
O734        C749   1.298       .  A
O735       Zr741   2.469       .  S
O735        C752   1.298       .  A
O736       Zr741   2.463       .  S
O736        C751   1.297       .  A
O737       Zr740   2.468       .  S
O737        C750   1.299       .  A
O738       Zr744   2.425       .  S
O738        C747   1.287       .  A
O739       Zr744   2.419       .  S
O739        C748   1.288       .  A
Zr740       O746   2.341       .  S
Zr740       O758   2.349       .  S
Zr741       O745   2.347       .  S
Zr741       O756   2.342       .  S
Zr742       O746   2.337       .  S
Zr742       O756   2.341       .  S
Zr743       O745   2.341       .  S
Zr743       O758   2.348       .  S
Zr744       O745   2.336       .  S
Zr744       O746   2.334       .  S
Zr744       O758   2.333       .  S
Zr744       O756   2.338       .  S
C747       C1238   1.513       .  S
C748       C1378   1.492       .  S
C749       C1169   1.484       .  S
C750       C1189   1.491       .  S
C751       C1329   1.482       .  S
C752       C1349   1.487       .  S
C753       C1318   1.482       .  S
C754       C1289   1.480       .  S
H755        O756   0.966       .  S
H757        O758   0.965       .  S
N759        C764   1.352       .  A
N759        H791   1.037       .  S
N760       C2175   1.349       .  A
N760        C768   1.350       .  A
N761        C766   1.352       .  A
N761        H792   1.035       .  S
N762       C2177   1.350       .  A
N762        C770   1.349       .  A
C763        C771   1.386       .  A
C763        C779   1.412       .  A
C764        C780   1.415       .  A
C764        C772   1.388       .  A
C765        C773   1.388       .  A
C765        C782   1.417       .  A
C766        C781   1.414       .  A
C766        C774   1.387       .  A
C767       N2168   1.349   1_455  A
C767        C779   1.410       .  A
C767        C775   1.386       .  A
C768        C782   1.413       .  A
C768        C776   1.388       .  A
C769       N2170   1.350   1_455  A
C769        C777   1.386       .  A
C769        C780   1.411       .  A
C770        C778   1.387       .  A
C770        C781   1.411       .  A
C771        H783   1.082       .  S
C772        H784   1.082       .  S
C773        H785   1.082       .  S
C774        H786   1.082       .  S
C775       C2184   1.367   1_455  A
C775        H787   1.083       .  S
C776       C2183   1.367       .  A
C776        H788   1.082       .  S
C777       C2186   1.369   1_455  A
C777        H789   1.082       .  S
C778       C2185   1.369       .  A
C778        H790   1.082       .  S
C779       C1298   1.481       .  S
C780       C1269   1.485       .  S
C781       C1249   1.482       .  S
C782       C1309   1.484       .  S
O793       Zr829   2.447       .  S
O793        C804   1.293       .  A
O794       Zr828   2.453       .  S
O794        C805   1.295       .  A
O795      Zr2209   2.434       .  S
O795        C806   1.291       .  A
O796       Zr801   2.422       .  S
O796        C807   1.287       .  A
O797       Zr831   2.437       .  S
O797        C807   1.290       .  A
O798       Zr830   2.428       .  S
O798        C806   1.290       .  A
O799       Zr801   2.446       .  S
O799        C805   1.294       .  A
O800       Zr801   2.457   1_556  S
O800        C804   1.295       .  A
Zr801      O2203   2.434       .  S
Zr801       O802   2.341       .  S
Zr801      O2211   2.342   1_554  S
Zr801       O811   2.342   1_554  S
Zr801      O2217   2.339       .  S
O802       Zr828   2.349       .  S
O802       Zr831   2.332       .  S
O803      Zr2209   2.342   1_556  S
O803      Zr2237   2.361       .  S
O803       Zr830   2.343   1_556  S
C804       C1158   1.480       .  S
C805        C969   1.486       .  S
C806       C1009   1.479       .  S
C807       C1029   1.489       .  S
H808        O809   0.965       .  S
O809      Zr2209   2.339       .  S
O809      Zr2236   2.351       .  S
O809       Zr830   2.339       .  S
H810        O811   0.964       .  S
O811       Zr829   2.350       .  S
O811       Zr831   2.335   1_556  S
O812        C835   1.295       .  A
O813        C836   1.297       .  A
O814       Zr830   2.450       .  S
O814        C837   1.295       .  A
O815       Zr831   2.421       .  S
O815        C838   1.288       .  A
O816       Zr831   2.420   1_556  S
O817       Zr830   2.448   1_556  S
O818      Zr2240   2.428   1_556  S
O818        C841   1.289       .  A
O819       Zr832   2.429   1_556  S
O819        C842   1.289       .  A
O820        C841   1.291       .  A
O821        C842   1.290   1_554  A
O822      Zr2236   2.454       .  S
O822        C837   1.295       .  A
O823      Zr1533   2.471       .  S
O823        C840   1.298       .  A
O824        C839   1.298       .  A
O825       Zr828   2.470       .  S
O825        C838   1.298       .  A
O826       Zr832   2.430       .  S
O826        C835   1.289       .  A
O827       Zr832   2.423   1_556  S
O827        C836   1.289       .  A
Zr828      O2230   2.454       .  S
Zr828      O2217   2.351       .  S
Zr828      O1538   2.349   1_565  S
Zr829      O1527   2.471       .  S
Zr829      O2211   2.361       .  S
Zr829      O1548   2.345   1_565  S
Zr832      O2226   2.428   1_554  S
Zr832       O833   2.332   1_554  S
Zr832      O2242   2.335       .  S
Zr832       O846   2.335       .  S
Zr832      O2252   2.338   1_554  S
O834      Zr1532   2.349       .  S
O834      Zr2240   2.335       .  S
C835        C989   1.503       .  S
C836       C1138   1.500       .  S
C837        C929   1.487       .  S
C838        C958   1.498       .  S
C841       C1069   1.464       .  S
C842       C1049   1.485       .  S
H843        O844   0.960       .  S
O844      Zr1533   2.345       .  S
O844      Zr2240   2.338   1_556  S
H845        O846   0.964       .  S
N847        C852   1.349   1_556  A
N847        C851   1.350   1_556  A
N847        H879   1.042       .  S
N848        C855   1.349       .  A
N848        C856   1.347       .  A
N849        C854   1.350       .  A
N849        C853   1.351       .  A
N849        H880   1.040       .  S
N850        C857   1.348       .  A
N850        C858   1.348       .  A
C851        C859   1.388       .  A
C851        C867   1.413   1_554  A
C852        C868   1.408       .  A
C852        C860   1.386       .  A
C853        C861   1.386       .  A
C853        C870   1.411       .  A
C854        C869   1.412       .  A
C854        C862   1.388   1_556  A
C855        C867   1.414       .  A
C855        C863   1.388       .  A
C856        C870   1.407       .  A
C856        C864   1.385       .  A
C857        C865   1.387       .  A
C857        C868   1.409   1_556  A
C858        C866   1.386       .  A
C858        C869   1.408       .  A
C859        C860   1.380       .  A
C859        H871   1.082       .  S
C860        H872   1.082       .  S
C861        C862   1.376   1_556  A
C861        H873   1.082   1_556  S
C862        H874   1.082       .  S
C863        C864   1.377       .  A
C863        H875   1.082       .  S
C864        H876   1.082       .  S
C865        C866   1.374       .  A
C865        H877   1.082       .  S
C866        H878   1.082       .  S
C867       C1078   1.494       .  S
C868       C1018   1.482       .  S
C869       C1038   1.480       .  S
C870       C1058   1.484       .  S
C881       C2290   1.550       .  S
C881        C887   1.538       .  S
C881        C885   1.530       .  S
C881        C998   1.555       .  S
C882       C2289   1.550   1_455  S
C882        H889   1.082       .  S
C882        C883   1.371       .  D
C883       C2292   1.545   1_455  S
C883       C1338   1.515       .  S
C884       C2291   1.545       .  S
C884        C888   1.552       .  S
C884        C886   1.567       .  S
C884        H890   1.099       .  S
C885        H891   1.086       .  S
C885        C886   1.360       .  D
C886       C1358   1.495       .  S
C887        H892   1.085       .  S
C887        C888   1.373       .  D
C888        C978   1.523       .  S
C893        C894   1.548       .  S
C893        C897   1.524       .  S
C893       C1389   1.553       .  S
C894        H901   1.085       .  S
C895        C896   1.553   1_545  S
C895        C949   1.521       .  S
C896        C900   1.554       .  S
C896        C898   1.549   1_565  S
C896        H902   1.104       .  S
C897        H903   1.087       .  S
C898        C938   1.492       .  S
C899        H904   1.083       .  S
C899        C900   1.372   1_545  D
C900       C1369   1.511       .  S
C905        C906   1.544       .  S
C905        C911   1.539       .  S
C905       C2317   1.538       .  S
C905       C1129   1.561       .  S
C906        H913   1.082       .  S
C906        C907   1.370       .  D
C907        C908   1.552       .  S
C907       C1178   1.500       .  S
C908        C912   1.550       .  S
C908       C2318   1.547       .  S
C908        H914   1.106       .  S
C909       C2313   1.538   1_455  S
C909        H915   1.085       .  S
C909        C910   1.361       .  D
C910       C2316   1.547   1_455  S
C910       C1198   1.500       .  S
C911        H916   1.084       .  S
C911        C912   1.375       .  D
C912       C1149   1.520       .  S
C917        C918   1.541       .  S
C917        C921   1.530       .  S
C917       C1209   1.559       .  S
C918        H925   1.081       .  S
C919        C920   1.553   1_545  S
C919       C1118   1.512       .  S
C920        C924   1.541       .  S
C920        C922   1.554   1_565  S
C920        H926   1.107       .  S
C921        H927   1.086       .  S
C922       C1098   1.503   1_545  S
C923        H928   1.084       .  S
C923        C924   1.369   1_545  D
C924       C1229   1.496       .  S
C929        C930   1.412       .  A
C930        C931   1.410       .  A
C930       Br942   1.928       .  S
C931        C932   1.411       .  A
C931       Br946   1.931       .  S
C932        C935   1.496       .  S
C933        C934   1.412       .  A
C933       Br941   1.930       .  S
C934       Br945   1.930       .  S
C935        C936   1.410       .  A
C936        C937   1.410       .  A
C936       Br947   1.931       .  S
C937        C938   1.415   1_565  A
C937       Br943   1.933       .  S
C939        C940   1.412       .  A
C939       Br948   1.927       .  S
C940       Br944   1.931       .  S
C949        C950   1.430   1_545  A
C950        C951   1.415       .  A
C950       Br962   1.925       .  S
C951        C952   1.406       .  A
C951       Br966   1.933       .  S
C952        C955   1.491       .  S
C953        C954   1.403       .  A
C953       Br961   1.936       .  S
C954       Br965   1.918       .  S
C955        C956   1.410       .  A
C955        C960   1.407       .  A
C956        C957   1.414       .  A
C956       Br967   1.930       .  S
C957        C958   1.419       .  A
C957       Br963   1.931       .  S
C958        C959   1.423       .  A
C959        C960   1.404       .  A
C969       C2378   1.413       .  A
C969        C974   1.412       .  A
C970       C2377   1.413   1_455  A
C970        C971   1.413       .  A
C970       Br982   1.929       .  S
C971       C2380   1.411   1_455  A
C971       Br986   1.929       .  S
C972        C975   1.492       .  S
C972       C2379   1.411       .  A
C972        C973   1.408       .  A
C973        C974   1.407       .  A
C973       Br981   1.931       .  S
C974       Br985   1.928       .  S
C975       C2384   1.402       .  A
C975        C980   1.404       .  A
C976       C2383   1.402   1_455  A
C976        C977   1.410       .  A
C976       Br987   1.937       .  S
C977       C2386   1.431   1_455  A
C977       Br983   1.933       .  S
C978       C2385   1.431       .  A
C978        C979   1.430       .  A
C979        C980   1.415       .  A
C979       Br988   1.928       .  S
C980       Br984   1.934       .  S
C989        C990   1.424       .  A
C989       C2402   1.426       .  A
C990        C991   1.414       .  A
C990      Br1002   1.933       .  S
C991        C992   1.407       .  A
C991      Br1006   1.930       .  S
C992        C995   1.490       .  S
C992       C2401   1.405       .  A
C993       C2400   1.405       .  A
C993        C994   1.406       .  A
C993      Br1001   1.938       .  S
C994       C2397   1.426       .  A
C994      Br1005   1.936       .  S
C995        C996   1.407       .  A
C995       C2408   1.402       .  A
C996        C997   1.414       .  A
C996      Br1007   1.933       .  S
C997        C998   1.428       .  A
C997      Br1003   1.932       .  S
C998       C2407   1.423       .  A
C999       C2406   1.423   1_455  A
C999       C1000   1.405       .  A
C999      Br1008   1.923       .  S
C1000      C2403   1.402   1_455  A
C1000     Br1004   1.934       .  S
C1009      C1010   1.415   1_554  A
C1009      C1014   1.417       .  A
C1010      C1011   1.404       .  A
C1010     Br1022   1.934       .  S
C1011      C1012   1.406   1_556  A
C1011     Br1026   1.931       .  S
C1012      C1015   1.477       .  S
C1012      C1013   1.405       .  A
C1013      C1014   1.404       .  A
C1013     Br1021   1.933       .  S
C1014     Br1025   1.931       .  S
C1015      C1016   1.410   1_554  A
C1015      C1020   1.408       .  A
C1016      C1017   1.404       .  A
C1016     Br1027   1.933       .  S
C1017      C1018   1.409   1_556  A
C1017     Br1023   1.930       .  S
C1018      C1019   1.409       .  A
C1019      C1020   1.404       .  A
C1019     Br1028   1.929       .  S
C1020     Br1024   1.929       .  S
C1029      C1030   1.420       .  A
C1029      C1034   1.423   1_554  A
C1030      C1031   1.405       .  A
C1030     Br1042   1.936       .  S
C1031      C1032   1.407   1_554  A
C1031     Br1046   1.935       .  S
C1032      C1035   1.480       .  S
C1032      C1033   1.406       .  A
C1033      C1034   1.405       .  A
C1033     Br1041   1.935       .  S
C1034     Br1045   1.936       .  S
C1035      C1036   1.410   1_556  A
C1035      C1040   1.411       .  A
C1036      C1037   1.403       .  A
C1036     Br1047   1.932       .  S
C1037      C1038   1.408   1_554  A
C1037     Br1043   1.929       .  S
C1038      C1039   1.407       .  A
C1039      C1040   1.404       .  A
C1039     Br1048   1.930       .  S
C1040     Br1044   1.931       .  S
C1049      C1050   1.417       .  A
C1049      C1054   1.417   1_556  A
C1050      C1051   1.407       .  A
C1050     Br1062   1.931       .  S
C1051      C1052   1.406       .  A
C1051     Br1066   1.931       .  S
C1052      C1055   1.483       .  S
C1052      C1053   1.408   1_556  A
C1053      C1054   1.406       .  A
C1053     Br1061   1.932       .  S
C1054     Br1065   1.935       .  S
C1055      C1056   1.412       .  A
C1055      C1060   1.408   1_556  A
C1056      C1057   1.408       .  A
C1056     Br1067   1.930       .  S
C1057      C1058   1.409       .  A
C1057     Br1063   1.928       .  S
C1058      C1059   1.409   1_556  A
C1059      C1060   1.403       .  A
C1059     Br1068   1.931       .  S
C1060     Br1064   1.931       .  S
C1069      C1070   1.409       .  A
C1069      C1074   1.404   1_556  A
C1070      C1071   1.406       .  A
C1070     Br1082   1.932       .  S
C1071      C1072   1.413       .  A
C1071     Br1086   1.930       .  S
C1072      C1075   1.482       .  S
C1072      C1073   1.411   1_556  A
C1073      C1074   1.401       .  A
C1073     Br1081   1.932       .  S
C1074     Br1085   1.925       .  S
C1075      C1076   1.409   1_556  A
C1075      C1080   1.408       .  A
C1076      C1077   1.403       .  A
C1076     Br1087   1.933       .  S
C1077      C1078   1.414   1_554  A
C1077     Br1083   1.933       .  S
C1078      C1079   1.417       .  A
C1079      C1080   1.406       .  A
C1079     Br1088   1.933       .  S
C1080     Br1084   1.933       .  S
C1089      C1094   1.420       .  A
C1090      C1091   1.412       .  A
C1090     Br1102   1.931       .  S
C1091     Br1106   1.930       .  S
C1092      C1095   1.490       .  S
C1092      C1093   1.406       .  A
C1093      C1094   1.407       .  A
C1093     Br1101   1.933       .  S
C1094     Br1105   1.933       .  S
C1095      C1100   1.409       .  A
C1096      C1097   1.407       .  A
C1096     Br1107   1.931       .  S
C1097     Br1103   1.928       .  S
C1098      C1099   1.416       .  A
C1099      C1100   1.413       .  A
C1099     Br1108   1.920       .  S
C1100     Br1104   1.931       .  S
C1109      C1114   1.424       .  A
C1110      C1111   1.409       .  A
C1110     Br1122   1.934       .  S
C1111     Br1126   1.938       .  S
C1112      C1115   1.498       .  S
C1112      C1113   1.410       .  A
C1113      C1114   1.418       .  A
C1113     Br1121   1.932       .  S
C1114     Br1125   1.930       .  S
C1115      C1120   1.409       .  A
C1116      C1117   1.411       .  A
C1116     Br1127   1.932       .  S
C1117     Br1123   1.939       .  S
C1118      C1119   1.418   1_545  A
C1119      C1120   1.411       .  A
C1119     Br1128   1.928       .  S
C1120     Br1124   1.931       .  S
C1129      C1130   1.427       .  A
C1129      C2542   1.435       .  A
C1130      C1131   1.410       .  A
C1130     Br1142   1.927       .  S
C1131      C1132   1.403       .  A
C1131     Br1146   1.934       .  S
C1132      C1135   1.492       .  S
C1132      C2541   1.404       .  A
C1133      C2540   1.404   1_455  A
C1133      C1134   1.414       .  A
C1133     Br1141   1.937       .  S
C1134      C2537   1.435   1_455  A
C1134     Br1145   1.936       .  S
C1135      C1136   1.406       .  A
C1135      C2548   1.409       .  A
C1136      C1137   1.405       .  A
C1136     Br1147   1.937       .  S
C1137      C1138   1.423       .  A
C1137     Br1143   1.931       .  S
C1138      C2547   1.420       .  A
C1139      C2546   1.420   1_455  A
C1139      C1140   1.414       .  A
C1139     Br1148   1.932       .  S
C1140      C2543   1.409   1_455  A
C1140     Br1144   1.928       .  S
C1149      C1150   1.428       .  A
C1149      C2562   1.425       .  A
C1150      C1151   1.415       .  A
C1150     Br1162   1.927       .  S
C1151      C1152   1.407       .  A
C1151     Br1166   1.932       .  S
C1152      C1155   1.496       .  S
C1152      C2561   1.406       .  A
C1153      C2560   1.406   1_455  A
C1153      C1154   1.407       .  A
C1153     Br1161   1.935       .  S
C1154      C2557   1.425   1_455  A
C1154     Br1165   1.930       .  S
C1155      C2564   1.413       .  A
C1155      C1160   1.413       .  A
C1156      C2563   1.413   1_455  A
C1156      C1157   1.409       .  A
C1156     Br1167   1.930       .  S
C1157      C2566   1.407       .  A
C1157     Br1163   1.927       .  S
C1158      C2565   1.407       .  A
C1158      C1159   1.410       .  A
C1159      C1160   1.411       .  A
C1159     Br1168   1.927       .  S
C1160     Br1164   1.930       .  S
C1169      C1170   1.412       .  A
C1169      C1174   1.411       .  A
C1170      C1171   1.415       .  A
C1170     Br1182   1.929       .  S
C1171      C1172   1.413       .  A
C1171     Br1186   1.928       .  S
C1172      C1175   1.495       .  S
C1172      C1173   1.409       .  A
C1173      C1174   1.407       .  A
C1173     Br1181   1.931       .  S
C1174     Br1185   1.930       .  S
C1175      C1176   1.412       .  A
C1175      C1180   1.407       .  A
C1176      C1177   1.413       .  A
C1176     Br1187   1.929       .  S
C1177      C1178   1.411       .  A
C1177     Br1183   1.923       .  S
C1178      C1179   1.418       .  A
C1179      C1180   1.410       .  A
C1179     Br1188   1.929       .  S
C1180     Br1184   1.931       .  S
C1189      C1190   1.419       .  A
C1189      C1194   1.414       .  A
C1190      C1191   1.409       .  A
C1190     Br1202   1.932       .  S
C1191      C1192   1.407       .  A
C1191     Br1206   1.931       .  S
C1192      C1195   1.494       .  S
C1192      C1193   1.411       .  A
C1193      C1194   1.412       .  A
C1193     Br1201   1.928       .  S
C1194     Br1205   1.932       .  S
C1195      C1196   1.409       .  A
C1195      C1200   1.408       .  A
C1196      C1197   1.413       .  A
C1196     Br1207   1.930       .  S
C1197      C1198   1.416       .  A
C1197     Br1203   1.925       .  S
C1198      C1199   1.418       .  A
C1199      C1200   1.410       .  A
C1199     Br1208   1.932       .  S
C1200     Br1204   1.931       .  S
C1209      C1210   1.428       .  A
C1209      C1214   1.426       .  A
C1210      C1211   1.410       .  A
C1210     Br1222   1.933       .  S
C1211      C1212   1.404       .  A
C1211     Br1226   1.932       .  S
C1212      C1215   1.493       .  S
C1212      C1213   1.406       .  A
C1213      C1214   1.413       .  A
C1213     Br1221   1.933       .  S
C1214     Br1225   1.927       .  S
C1215      C1216   1.408       .  A
C1215      C1220   1.411       .  A
C1216      C1217   1.408       .  A
C1216     Br1227   1.930       .  S
C1217      C1218   1.414       .  A
C1217     Br1223   1.931       .  S
C1218      C1219   1.415       .  A
C1219      C1220   1.413       .  A
C1219     Br1228   1.928       .  S
C1220     Br1224   1.930       .  S
C1229      C1230   1.414       .  A
C1229      C1234   1.413       .  A
C1230      C1231   1.409       .  A
C1230     Br1242   1.929       .  S
C1231      C1232   1.412       .  A
C1231     Br1246   1.932       .  S
C1232      C1235   1.496       .  S
C1232      C1233   1.410       .  A
C1233      C1234   1.411       .  A
C1233     Br1241   1.931       .  S
C1234     Br1245   1.921       .  S
C1235      C1236   1.404       .  A
C1235      C1240   1.410       .  A
C1236      C1237   1.407       .  A
C1236     Br1247   1.937       .  S
C1237      C1238   1.431       .  A
C1237     Br1243   1.940       .  S
C1238      C1239   1.427       .  A
C1239      C1240   1.416       .  A
C1239     Br1248   1.935       .  S
C1240     Br1244   1.932       .  S
C1249      C1250   1.411       .  A
C1249      C1254   1.407       .  A
C1250      C1251   1.404       .  A
C1250     Br1262   1.931       .  S
C1251      C1252   1.408       .  A
C1251     Br1266   1.930       .  S
C1252      C1255   1.476       .  S
C1252      C1253   1.409       .  A
C1253      C1254   1.401       .  A
C1253     Br1261   1.931       .  S
C1254     Br1265   1.930       .  S
C1255      C1256   1.405       .  A
C1255      C1260   1.405       .  A
C1256      C1257   1.405       .  A
C1256     Br1267   1.933       .  S
C1257      C1258   1.420       .  A
C1257     Br1263   1.935       .  S
C1258      C1259   1.419       .  A
C1259      C1260   1.404       .  A
C1259     Br1268   1.933       .  S
C1260     Br1264   1.934       .  S
C1269      C1270   1.409       .  A
C1269      C1274   1.408       .  A
C1270      C1271   1.404       .  A
C1270     Br1282   1.933       .  S
C1271      C1272   1.412       .  A
C1271     Br1286   1.931       .  S
C1272      C1275   1.485       .  S
C1272      C1273   1.413       .  A
C1273      C1274   1.405       .  A
C1273     Br1281   1.932       .  S
C1274     Br1285   1.929       .  S
C1275      C1276   1.408       .  A
C1275      C1280   1.408       .  A
C1276      C1277   1.407       .  A
C1276     Br1287   1.933       .  S
C1277      C1278   1.418       .  A
C1277     Br1283   1.934       .  S
C1278      C1279   1.421       .  A
C1279      C1280   1.406       .  A
C1279     Br1288   1.934       .  S
C1280     Br1284   1.936       .  S
C1289      C1290   1.418       .  A
C1289      C1294   1.417       .  A
C1290      C1291   1.402       .  A
C1290     Br1302   1.932       .  S
C1291      C1292   1.404       .  A
C1291     Br1306   1.933       .  S
C1292      C1295   1.474       .  S
C1292      C1293   1.406       .  A
C1293      C1294   1.405       .  A
C1293     Br1301   1.932       .  S
C1294     Br1305   1.933       .  S
C1295      C1296   1.407       .  A
C1295      C1300   1.409       .  A
C1296      C1297   1.403       .  A
C1296     Br1307   1.930       .  S
C1297      C1298   1.410       .  A
C1297     Br1303   1.930       .  S
C1298      C1299   1.407       .  A
C1299      C1300   1.402       .  A
C1299     Br1308   1.930       .  S
C1300     Br1304   1.931       .  S
C1309      C1310   1.412       .  A
C1309      C1314   1.409       .  A
C1310      C1311   1.402       .  A
C1310     Br1322   1.933       .  S
C1311      C1312   1.409       .  A
C1311     Br1326   1.933       .  S
C1312      C1315   1.476       .  S
C1312      C1313   1.410       .  A
C1313      C1314   1.402       .  A
C1313     Br1321   1.933       .  S
C1314     Br1325   1.930       .  S
C1315      C1316   1.406       .  A
C1315      C1320   1.407       .  A
C1316      C1317   1.402       .  A
C1316     Br1327   1.934       .  S
C1317      C1318   1.419       .  A
C1317     Br1323   1.935       .  S
C1318      C1319   1.419       .  A
C1319      C1320   1.403       .  A
C1319     Br1328   1.934       .  S
C1320     Br1324   1.936       .  S
C1329      C1330   1.411       .  A
C1329      C1334   1.413       .  A
C1330      C1331   1.410       .  A
C1330     Br1342   1.928       .  S
C1331      C1332   1.411       .  A
C1331     Br1346   1.930       .  S
C1332      C1335   1.490       .  S
C1332      C1333   1.409       .  A
C1333      C1334   1.409       .  A
C1333     Br1341   1.930       .  S
C1334     Br1345   1.931       .  S
C1335      C1336   1.408       .  A
C1335      C1340   1.402       .  A
C1336      C1337   1.416       .  A
C1336     Br1347   1.931       .  S
C1337      C1338   1.422       .  A
C1337     Br1343   1.923       .  S
C1338      C1339   1.419       .  A
C1339      C1340   1.405       .  A
C1339     Br1348   1.917       .  S
C1340     Br1344   1.934       .  S
C1349      C1350   1.412       .  A
C1349      C1354   1.415       .  A
C1350      C1351   1.411       .  A
C1350     Br1362   1.929       .  S
C1351      C1352   1.411       .  A
C1351     Br1366   1.929       .  S
C1352      C1355   1.493       .  S
C1352      C1353   1.409       .  A
C1353      C1354   1.410       .  A
C1353     Br1361   1.930       .  S
C1354     Br1365   1.932       .  S
C1355      C1356   1.410       .  A
C1355      C1360   1.408       .  A
C1356      C1357   1.413       .  A
C1356     Br1367   1.929       .  S
C1357      C1358   1.414       .  A
C1357     Br1363   1.931       .  S
C1358      C1359   1.414       .  A
C1359      C1360   1.410       .  A
C1359     Br1368   1.930       .  S
C1360     Br1364   1.930       .  S
C1369      C1370   1.420       .  A
C1369      C1374   1.419       .  A
C1370      C1371   1.411       .  A
C1370     Br1382   1.934       .  S
C1371      C1372   1.409       .  A
C1371     Br1386   1.929       .  S
C1372      C1375   1.498       .  S
C1372      C1373   1.409       .  A
C1373      C1374   1.414       .  A
C1373     Br1381   1.931       .  S
C1374     Br1385   1.924       .  S
C1375      C1376   1.412       .  A
C1375      C1380   1.410       .  A
C1376      C1377   1.415       .  A
C1376     Br1387   1.928       .  S
C1377      C1378   1.413       .  A
C1377     Br1383   1.930       .  S
C1378      C1379   1.416       .  A
C1379      C1380   1.410       .  A
C1379     Br1388   1.932       .  S
C1380     Br1384   1.932       .  S
C1389      C1390   1.428       .  A
C1389      C1394   1.422       .  A
C1390      C1391   1.415       .  A
C1390     Br1402   1.934       .  S
C1391      C1392   1.408       .  A
C1391     Br1406   1.932       .  S
C1392      C1395   1.491       .  S
C1392      C1393   1.403       .  A
C1393      C1394   1.406       .  A
C1393     Br1401   1.933       .  S
C1394     Br1405   1.922       .  S
C1395      C1396   1.411       .  A
C1395      C1400   1.407       .  A
C1396      C1397   1.411       .  A
C1396     Br1407   1.932       .  S
C1397      C1398   1.414       .  A
C1397     Br1403   1.927       .  S
C1398      C1399   1.415       .  A
C1399      C1400   1.409       .  A
C1399     Br1408   1.930       .  S
C1400     Br1404   1.929       .  S
O1409     Zr1445   2.460       .  S
O1409      C1420   1.297       .  A
O1410     Zr1444   2.455       .  S
O1410      C1421   1.295       .  A
O1411     Zr1417   2.424       .  S
O1411      C1422   1.289       .  A
O1412     Zr1417   2.430       .  S
O1412      C1423   1.289       .  A
O1413     Zr1447   2.442       .  S
O1413      C1423   1.292       .  A
O1414     Zr1446   2.436       .  S
O1414      C1422   1.290       .  A
O1415     Zr1417   2.446       .  S
O1415      C1421   1.294       .  A
O1416     Zr1417   2.440       .  S
O1416      C1420   1.293       .  A
Zr1417     O1418   2.334       .  S
Zr1417     O1419   2.341       .  S
Zr1417     O1427   2.339       .  S
Zr1417     O1425   2.339       .  S
O1418     Zr1444   2.357       .  S
O1418     Zr1447   2.336       .  S
O1419     Zr1445   2.354       .  S
O1419     Zr1446   2.334       .  S
C1420      C2102   1.489       .  S
C1421      C1922   1.490       .  S
C1422      C1962   1.485       .  S
C1423      C1982   1.490       .  S
H1424      O1425   0.958       .  S
O1425     Zr1444   2.352       .  S
O1425     Zr1446   2.338       .  S
H1426      O1427   0.967       .  S
O1427     Zr1445   2.356       .  S
O1427     Zr1447   2.333       .  S
O1428     Zr1444   2.466       .  S
O1428      C1451   1.295       .  A
O1429     Zr1445   2.483       .  S
O1429      C1452   1.301       .  A
O1430     Zr1446   2.433       .  S
O1430      C1453   1.291       .  A
O1431     Zr1447   2.428       .  S
O1431      C1454   1.291       .  A
O1432     Zr1447   2.435       .  S
O1432      C1455   1.291       .  A
O1433     Zr1446   2.428       .  S
O1433      C1456   1.290       .  A
O1434     Zr1448   2.428       .  S
O1434      C1457   1.289       .  A
O1435     Zr1448   2.426       .  S
O1435      C1458   1.289       .  A
O1436     Zr1446   2.424       .  S
O1436      C1457   1.288       .  A
O1437     Zr1447   2.427       .  S
O1437      C1458   1.289       .  A
O1438     Zr1444   2.471       .  S
O1438      C1453   1.298       .  A
O1439     Zr1445   2.469       .  S
O1439      C1456   1.298       .  A
O1440     Zr1445   2.463       .  S
O1440      C1455   1.297       .  A
O1441     Zr1444   2.468       .  S
O1441      C1454   1.299       .  A
O1442     Zr1448   2.425       .  S
O1442      C1451   1.287       .  A
O1443     Zr1448   2.419       .  S
O1443      C1452   1.288       .  A
Zr1444     O1450   2.341       .  S
Zr1444     O1462   2.349       .  S
Zr1445     O1449   2.347       .  S
Zr1445     O1460   2.342       .  S
Zr1446     O1450   2.337       .  S
Zr1446     O1460   2.341       .  S
Zr1447     O1449   2.341       .  S
Zr1447     O1462   2.348       .  S
Zr1448     O1449   2.336       .  S
Zr1448     O1450   2.334       .  S
Zr1448     O1462   2.333       .  S
Zr1448     O1460   2.338       .  S
C1451      C1942   1.513       .  S
C1452      C2082   1.492       .  S
C1453      C1873   1.484       .  S
C1454      C1893   1.491       .  S
C1455      C2033   1.482       .  S
C1456      C2053   1.487       .  S
C1457      C2022   1.482       .  S
C1458      C1993   1.480       .  S
H1459      O1460   0.966       .  S
H1461      O1462   0.965       .  S
N1463      C1468   1.352       .  A
N1463      C2171   1.352   1_545  A
N1463      H1495   1.037       .  S
N1464      C1472   1.350       .  A
N1465      C1470   1.352       .  A
N1465      C2173   1.352   1_545  A
N1465      H1496   1.035       .  S
N1466      C1474   1.349       .  A
C1467      N2167   1.352       .  A
C1467      C1475   1.386       .  A
C1467      C1483   1.412       .  A
C1468      C1484   1.415       .  A
C1468      C1476   1.388       .  A
C1469      N2169   1.352       .  A
C1469      C1477   1.388       .  A
C1469      C1486   1.417       .  A
C1470      C1485   1.414       .  A
C1470      C1478   1.387       .  A
C1471      C1483   1.410       .  A
C1471      C1479   1.386       .  A
C1472      C1486   1.413       .  A
C1472      C1480   1.388       .  A
C1473      C1481   1.386       .  A
C1473      C1484   1.411       .  A
C1474      C1482   1.387       .  A
C1474      C1485   1.411       .  A
C1475      C2180   1.371       .  A
C1475      H1487   1.082       .  S
C1476      C2179   1.371   1_545  A
C1476      H1488   1.082       .  S
C1477      C2182   1.371       .  A
C1477      H1489   1.082       .  S
C1478      C2181   1.371   1_545  A
C1478      H1490   1.082       .  S
C1479      H1491   1.083       .  S
C1480      H1492   1.082       .  S
C1481      H1493   1.082       .  S
C1482      H1494   1.082       .  S
C1483      C2002   1.481       .  S
C1484      C1973   1.485       .  S
C1485      C1953   1.482       .  S
C1486      C2013   1.484       .  S
O1497     Zr1533   2.447       .  S
O1497      C1508   1.293       .  A
O1498     Zr1532   2.453   1_655  S
O1498      C1509   1.295       .  A
O1499      C1510   1.291       .  A
O1500     Zr1505   2.422   1_655  S
O1500      C1511   1.287       .  A
O1501     Zr1535   2.437       .  S
O1501      C1511   1.290       .  A
O1502     Zr1534   2.428       .  S
O1502      C1510   1.290       .  A
O1503     Zr1505   2.446       .  S
O1503      C1509   1.294   1_455  A
O1504     Zr1505   2.457   1_556  S
O1504      C1508   1.295       .  A
Zr1505     O1506   2.341   1_455  S
Zr1505     O1515   2.342   1_454  S
O1506     Zr1532   2.349   1_655  S
O1506     Zr1535   2.332       .  S
O1507     Zr1534   2.343   1_556  S
C1508      C1862   1.480       .  S
C1509      C1673   1.486       .  S
C1510      C1713   1.479       .  S
C1511      C1733   1.489       .  S
H1512      O1513   0.965       .  S
O1513     Zr1534   2.339       .  S
H1514      O1515   0.964       .  S
O1515     Zr1533   2.350   1_655  S
O1515     Zr1535   2.335   1_556  S
O1516     Zr2236   2.460   1_545  S
O1516      C1539   1.295       .  A
O1517     Zr2237   2.467   1_645  S
O1517      C1540   1.297       .  A
O1518     Zr1534   2.450       .  S
O1518      C1541   1.295       .  A
O1519     Zr1535   2.421       .  S
O1519      C1542   1.288       .  A
O1520     Zr1535   2.420   1_556  S
O1520      C2247   1.288       .  A
O1521     Zr1534   2.448   1_556  S
O1521      C2248   1.293       .  A
O1522      C1545   1.289       .  A
O1523     Zr1536   2.429   1_656  S
O1523      C1546   1.289       .  A
O1524     Zr2238   2.436   1_546  S
O1524      C1545   1.291       .  A
O1525     Zr2239   2.435   1_545  S
O1525      C1546   1.290   1_554  A
O1526      C1541   1.295       .  A
O1527      C1544   1.298       .  A
O1528     Zr2237   2.468   1_655  S
O1528      C1543   1.298       .  A
O1529     Zr1532   2.470   1_655  S
O1529      C1542   1.298       .  A
O1530     Zr1536   2.430   1_655  S
O1530      C1539   1.289   1_655  A
O1531     Zr1536   2.423   1_656  S
O1531      C1540   1.289       .  A
Zr1532     O2220   2.460       .  S
Zr1532     O2254   2.343   1_455  S
Zr1533     O2221   2.467   1_455  S
Zr1533     O2232   2.468   1_455  S
Zr1533     O2241   2.342   1_455  S
Zr1534     O2228   2.436   1_554  S
Zr1534     O2242   2.341       .  S
Zr1534     O2252   2.344   1_554  S
Zr1535     O2229   2.435       .  S
Zr1535     O2241   2.333   1_554  S
Zr1535     O2254   2.340       .  S
Zr1536     O1537   2.332   1_454  S
Zr1536     O1550   2.335   1_455  S
O1537     Zr2237   2.342   1_645  S
O1537     Zr2239   2.333   1_546  S
O1538     Zr2238   2.341   1_545  S
C1539      C1693   1.503       .  S
C1540      C1842   1.500       .  S
C1541      C1633   1.487       .  S
C1542      C1662   1.498       .  S
C1543      O2224   1.288       .  A
C1543      C2497   1.490       .  S
C1544      O2225   1.293       .  A
C1544      C2517   1.509       .  S
C1545      C1773   1.464       .  S
C1546      C1753   1.485       .  S
H1547      O1548   0.960       .  S
O1548     Zr2238   2.344   1_546  S
H1549      O1550   0.964       .  S
O1550     Zr2236   2.343   1_645  S
O1550     Zr2239   2.340   1_545  S
N1551      C1556   1.349   1_556  A
N1551      C1555   1.350   1_556  A
N1551      H1583   1.042       .  S
N1552      C1559   1.349       .  A
N1552      C1560   1.347       .  A
N1553      C1558   1.350       .  A
N1553      C1557   1.351       .  A
N1553      H1584   1.040       .  S
N1554      C1561   1.348       .  A
N1554      C1562   1.348       .  A
C1555      C1563   1.388       .  A
C1555      C1571   1.413   1_554  A
C1556      C1572   1.408       .  A
C1556      C1564   1.386       .  A
C1557      C1565   1.386       .  A
C1557      C1574   1.411       .  A
C1558      C1573   1.412       .  A
C1558      C1566   1.388   1_556  A
C1559      C1571   1.414       .  A
C1559      C1567   1.388       .  A
C1560      C1574   1.407       .  A
C1560      C1568   1.385       .  A
C1561      C1569   1.387       .  A
C1561      C1572   1.409   1_556  A
C1562      C1570   1.386       .  A
C1562      C1573   1.408       .  A
C1563      C1564   1.380       .  A
C1563      H1575   1.082       .  S
C1564      H1576   1.082       .  S
C1565      C1566   1.376   1_556  A
C1565      H1577   1.082   1_556  S
C1566      H1578   1.082       .  S
C1567      C1568   1.377       .  A
C1567      H1579   1.082       .  S
C1568      H1580   1.082       .  S
C1569      C1570   1.374       .  A
C1569      H1581   1.082       .  S
C1570      H1582   1.082       .  S
C1571      C1782   1.494       .  S
C1572      C1722   1.482       .  S
C1573      C1742   1.480       .  S
C1574      C1762   1.484       .  S
C1585      C1591   1.538       .  S
C1585      C1589   1.530       .  S
C1585      C1702   1.555       .  S
C1586      H1593   1.082       .  S
C1586      C1587   1.371       .  D
C1587      C2042   1.515       .  S
C1588      C1592   1.552       .  S
C1588      C1590   1.567       .  S
C1588      H1594   1.099       .  S
C1589      H1595   1.086       .  S
C1589      C1590   1.360       .  D
C1590      C2062   1.495       .  S
C1591      H1596   1.085       .  S
C1591      C1592   1.373       .  D
C1592      C1682   1.523       .  S
C1597      C1598   1.548       .  S
C1597      C2307   1.543       .  S
C1597      C1601   1.524       .  S
C1597      C2093   1.553       .  S
C1598      H1605   1.085       .  S
C1598      C2303   1.379       .  D
C1599      C1600   1.553       .  S
C1599      C2302   1.379       .  D
C1599      C1653   1.521       .  S
C1600      C1604   1.554       .  S
C1600      C1602   1.549       .  S
C1600      H1606   1.104       .  S
C1601      H1607   1.087       .  S
C1601      C2306   1.356       .  D
C1602      C2305   1.356       .  D
C1602      C1642   1.492       .  S
C1603      C2301   1.543       .  S
C1603      H1608   1.083       .  S
C1603      C1604   1.372       .  D
C1604      C2073   1.511       .  S
C1609      C1610   1.544       .  S
C1609      C1615   1.539       .  S
C1609      C1833   1.561       .  S
C1610      H1617   1.082       .  S
C1610      C1611   1.370       .  D
C1611      C1612   1.552       .  S
C1611      C1882   1.500       .  S
C1612      C1616   1.550       .  S
C1612      H1618   1.106       .  S
C1613      H1619   1.085       .  S
C1613      C1614   1.361       .  D
C1614      C1902   1.500       .  S
C1615      H1620   1.084       .  S
C1615      C1616   1.375       .  D
C1616      C1853   1.520       .  S
C1621      C1622   1.541       .  S
C1621      C2331   1.549       .  S
C1621      C1625   1.530       .  S
C1621      C1913   1.559       .  S
C1622      H1629   1.081       .  S
C1622      C2327   1.367       .  D
C1623      C1624   1.553       .  S
C1623      C2326   1.367       .  D
C1623      C1822   1.512       .  S
C1624      C1628   1.541       .  S
C1624      C1626   1.554       .  S
C1624      H1630   1.107       .  S
C1625      H1631   1.086       .  S
C1625      C2330   1.370       .  D
C1626      C2329   1.370       .  D
C1626      C1802   1.503       .  S
C1627      C2325   1.549       .  S
C1627      H1632   1.084       .  S
C1627      C1628   1.369       .  D
C1628      C1933   1.496       .  S
C1633      C1634   1.412       .  A
C1633      C2342   1.412       .  A
C1634      C1635   1.410       .  A
C1634     Br1646   1.928       .  S
C1635      C1636   1.411       .  A
C1635     Br1650   1.931       .  S
C1636      C1639   1.496       .  S
C1636      C2341   1.413       .  A
C1637      C2340   1.413   1_545  A
C1637      C1638   1.412       .  A
C1637     Br1645   1.930       .  S
C1638      C2337   1.412   1_545  A
C1638     Br1649   1.930       .  S
C1639      C1640   1.410       .  A
C1639      C2348   1.413       .  A
C1640      C1641   1.410       .  A
C1640     Br1651   1.931       .  S
C1641      C1642   1.415       .  A
C1641     Br1647   1.933       .  S
C1642      C2347   1.410       .  A
C1643      C2346   1.410       .  A
C1643      C1644   1.412       .  A
C1643     Br1652   1.927       .  S
C1644      C2343   1.413   1_545  A
C1644     Br1648   1.931       .  S
C1653      C1654   1.430       .  A
C1653      C2362   1.422       .  A
C1654      C1655   1.415       .  A
C1654     Br1666   1.925       .  S
C1655      C1656   1.406       .  A
C1655     Br1670   1.933       .  S
C1656      C1659   1.491       .  S
C1656      C2361   1.402       .  A
C1657      C2360   1.402   1_545  A
C1657      C1658   1.403       .  A
C1657     Br1665   1.936       .  S
C1658      C2357   1.422       .  A
C1658     Br1669   1.918       .  S
C1659      C1660   1.410       .  A
C1659      C1664   1.407       .  A
C1660      C1661   1.414       .  A
C1660     Br1671   1.930       .  S
C1661      C1662   1.419       .  A
C1661     Br1667   1.931       .  S
C1662      C1663   1.423       .  A
C1663      C1664   1.404       .  A
C1663     Br2376   1.934       .  S
C1664     Br2372   1.938       .  S
Br1668     C2368   1.938   1_545  S
Br1672     C2367   1.934   1_545  S
C1673      C1678   1.412       .  A
C1674      C1675   1.413       .  A
C1674     Br1686   1.929       .  S
C1675     Br1690   1.929       .  S
C1676      C1679   1.492       .  S
C1676      C1677   1.408       .  A
C1677      C1678   1.407       .  A
C1677     Br1685   1.931       .  S
C1678     Br1689   1.928       .  S
C1679      C1684   1.404       .  A
C1680      C1681   1.410       .  A
C1680     Br1691   1.937       .  S
C1681     Br1687   1.933       .  S
C1682      C1683   1.430       .  A
C1683      C1684   1.415       .  A
C1683     Br1692   1.928       .  S
C1684     Br1688   1.934       .  S
C1693      C1694   1.424   1_455  A
C1694      C1695   1.414       .  A
C1694     Br1706   1.933       .  S
C1695      C1696   1.407   1_655  A
C1695     Br1710   1.930       .  S
C1696      C1699   1.490   1_455  S
C1697      C1698   1.406       .  A
C1697     Br1705   1.938       .  S
C1698     Br1709   1.936       .  S
C1699      C1700   1.407       .  A
C1700      C1701   1.414       .  A
C1700     Br1711   1.933       .  S
C1701      C1702   1.428       .  A
C1701     Br1707   1.932       .  S
C1703      C1704   1.405       .  A
C1703     Br1712   1.923       .  S
C1704     Br1708   1.934       .  S
C1713      C1714   1.415   1_554  A
C1713      C1718   1.417       .  A
C1714      C1715   1.404       .  A
C1714     Br1726   1.934       .  S
C1715      C1716   1.406   1_556  A
C1715     Br1730   1.931       .  S
C1716      C1719   1.477       .  S
C1716      C1717   1.405       .  A
C1717      C1718   1.404       .  A
C1717     Br1725   1.933       .  S
C1718     Br1729   1.931       .  S
C1719      C1720   1.410   1_554  A
C1719      C1724   1.408       .  A
C1720      C1721   1.404       .  A
C1720     Br1731   1.933       .  S
C1721      C1722   1.409   1_556  A
C1721     Br1727   1.930       .  S
C1722      C1723   1.409       .  A
C1723      C1724   1.404       .  A
C1723     Br1732   1.929       .  S
C1724     Br1728   1.929       .  S
C1733      C1734   1.420       .  A
C1733      C1738   1.423   1_554  A
C1734      C1735   1.405       .  A
C1734     Br1746   1.936       .  S
C1735      C1736   1.407   1_554  A
C1735     Br1750   1.935       .  S
C1736      C1739   1.480       .  S
C1736      C1737   1.406       .  A
C1737      C1738   1.405       .  A
C1737     Br1745   1.935       .  S
C1738     Br1749   1.936       .  S
C1739      C1740   1.410   1_556  A
C1739      C1744   1.411       .  A
C1740      C1741   1.403       .  A
C1740     Br1751   1.932       .  S
C1741      C1742   1.408   1_554  A
C1741     Br1747   1.929       .  S
C1742      C1743   1.407       .  A
C1743      C1744   1.404       .  A
C1743     Br1752   1.930       .  S
C1744     Br1748   1.931       .  S
C1753      C1754   1.417       .  A
C1753      C1758   1.417   1_556  A
C1754      C1755   1.407       .  A
C1754     Br1766   1.931       .  S
C1755      C1756   1.406       .  A
C1755     Br1770   1.931       .  S
C1756      C1759   1.483       .  S
C1756      C1757   1.408   1_556  A
C1757      C1758   1.406       .  A
C1757     Br1765   1.932       .  S
C1758     Br1769   1.935       .  S
C1759      C1760   1.412       .  A
C1759      C1764   1.408   1_556  A
C1760      C1761   1.408       .  A
C1760     Br1771   1.930       .  S
C1761      C1762   1.409       .  A
C1761     Br1767   1.928       .  S
C1762      C1763   1.409   1_556  A
C1763      C1764   1.403       .  A
C1763     Br1772   1.931       .  S
C1764     Br1768   1.931       .  S
C1773      C1774   1.409       .  A
C1773      C1778   1.404   1_556  A
C1774      C1775   1.406       .  A
C1774     Br1786   1.932       .  S
C1775      C1776   1.413       .  A
C1775     Br1790   1.930       .  S
C1776      C1779   1.482       .  S
C1776      C1777   1.411   1_556  A
C1777      C1778   1.401       .  A
C1777     Br1785   1.932       .  S
C1778     Br1789   1.925       .  S
C1779      C1780   1.409   1_556  A
C1779      C1784   1.408       .  A
C1780      C1781   1.403       .  A
C1780     Br1791   1.933       .  S
C1781      C1782   1.414   1_554  A
C1781     Br1787   1.933       .  S
C1782      C1783   1.417       .  A
C1783      C1784   1.406       .  A
C1783     Br1792   1.933       .  S
C1784     Br1788   1.933       .  S
C1793      C2247   1.490       .  S
C1793      C2498   1.415       .  A
C1793      C1798   1.420       .  A
C1794      C2497   1.415   1_545  A
C1794      C1795   1.412       .  A
C1794     Br1806   1.931       .  S
C1795      C2500   1.410   1_545  A
C1795     Br1810   1.930       .  S
C1796      C1799   1.490       .  S
C1796      C2499   1.410       .  A
C1796      C1797   1.406       .  A
C1797      C1798   1.407       .  A
C1797     Br1805   1.933       .  S
C1798     Br1809   1.933       .  S
C1799      C2504   1.406       .  A
C1799      C1804   1.409       .  A
C1800      C2503   1.406   1_545  A
C1800      C1801   1.407       .  A
C1800     Br1811   1.931       .  S
C1801      C2506   1.416   1_545  A
C1801     Br1807   1.928       .  S
C1802      C2505   1.416       .  A
C1802      C1803   1.416       .  A
C1803      C1804   1.413       .  A
C1803     Br1812   1.920       .  S
C1804     Br1808   1.931       .  S
C1813      C2248   1.509       .  S
C1813      C2518   1.426       .  A
C1813      C1818   1.424       .  A
C1814      C2517   1.426   1_545  A
C1814      C1815   1.409       .  A
C1814     Br1826   1.934       .  S
C1815      C2520   1.407   1_545  A
C1815     Br1830   1.938       .  S
C1816      C1819   1.498       .  S
C1816      C2519   1.407       .  A
C1816      C1817   1.410       .  A
C1817      C1818   1.418       .  A
C1817     Br1825   1.932       .  S
C1818     Br1829   1.930       .  S
C1819      C2524   1.408       .  A
C1819      C1824   1.409       .  A
C1820      C2523   1.408   1_545  A
C1820      C1821   1.411       .  A
C1820     Br1831   1.932       .  S
C1821      C2526   1.429       .  A
C1821     Br1827   1.939       .  S
C1822      C2525   1.429       .  A
C1822      C1823   1.418       .  A
C1823      C1824   1.411       .  A
C1823     Br1832   1.928       .  S
C1824     Br1828   1.931       .  S
C1833      C1834   1.427       .  A
C1834      C1835   1.410       .  A
C1834     Br1846   1.927       .  S
C1835      C1836   1.403       .  A
C1835     Br1850   1.934       .  S
C1836      C1839   1.492       .  S
C1837      C1838   1.414       .  A
C1837     Br1845   1.937       .  S
C1838     Br1849   1.936       .  S
C1839      C1840   1.406       .  A
C1840      C1841   1.405       .  A
C1840     Br1851   1.937       .  S
C1841      C1842   1.423       .  A
C1841     Br1847   1.931       .  S
C1843      C1844   1.414       .  A
C1843     Br1852   1.932       .  S
C1844     Br1848   1.928       .  S
C1853      C1854   1.428       .  A
C1854      C1855   1.415       .  A
C1854     Br1866   1.927       .  S
C1855      C1856   1.407       .  A
C1855     Br1870   1.932       .  S
C1856      C1859   1.496       .  S
C1857      C1858   1.407       .  A
C1857     Br1865   1.935       .  S
C1858     Br1869   1.930       .  S
C1859      C1864   1.413       .  A
C1860      C1861   1.409       .  A
C1860     Br1871   1.930       .  S
C1861     Br1867   1.927       .  S
C1862      C1863   1.410   1_455  A
C1863      C1864   1.411       .  A
C1863     Br1872   1.927       .  S
C1864     Br1868   1.930       .  S
C1873      C1874   1.412       .  A
C1873      C1878   1.411       .  A
C1874      C1875   1.415       .  A
C1874     Br1886   1.929       .  S
C1875      C1876   1.413       .  A
C1875     Br1890   1.928       .  S
C1876      C1879   1.495       .  S
C1876      C1877   1.409       .  A
C1877      C1878   1.407       .  A
C1877     Br1885   1.931       .  S
C1878     Br1889   1.930       .  S
C1879      C1880   1.412       .  A
C1879      C1884   1.407       .  A
C1880      C1881   1.413       .  A
C1880     Br1891   1.929       .  S
C1881      C1882   1.411       .  A
C1881     Br1887   1.923       .  S
C1882      C1883   1.418       .  A
C1883      C1884   1.410       .  A
C1883     Br1892   1.929       .  S
C1884     Br1888   1.931       .  S
C1893      C1894   1.419       .  A
C1893      C1898   1.414       .  A
C1894      C1895   1.409       .  A
C1894     Br1906   1.932       .  S
C1895      C1896   1.407       .  A
C1895     Br1910   1.931       .  S
C1896      C1899   1.494       .  S
C1896      C1897   1.411       .  A
C1897      C1898   1.412       .  A
C1897     Br1905   1.928       .  S
C1898     Br1909   1.932       .  S
C1899      C1900   1.409       .  A
C1899      C1904   1.408       .  A
C1900      C1901   1.413       .  A
C1900     Br1911   1.930       .  S
C1901      C1902   1.416       .  A
C1901     Br1907   1.925       .  S
C1902      C1903   1.418       .  A
C1903      C1904   1.410       .  A
C1903     Br1912   1.932       .  S
C1904     Br1908   1.931       .  S
C1913      C1914   1.428       .  A
C1913      C1918   1.426       .  A
C1914      C1915   1.410       .  A
C1914     Br1926   1.933       .  S
C1915      C1916   1.404       .  A
C1915     Br1930   1.932       .  S
C1916      C1919   1.493       .  S
C1916      C1917   1.406       .  A
C1917      C1918   1.413       .  A
C1917     Br1925   1.933       .  S
C1918     Br1929   1.927       .  S
C1919      C1920   1.408       .  A
C1919      C1924   1.411       .  A
C1920      C1921   1.408       .  A
C1920     Br1931   1.930       .  S
C1921      C1922   1.414       .  A
C1921     Br1927   1.931       .  S
C1922      C1923   1.415       .  A
C1923      C1924   1.413       .  A
C1923     Br1932   1.928       .  S
C1924     Br1928   1.930       .  S
C1933      C1934   1.414       .  A
C1933      C1938   1.413       .  A
C1934      C1935   1.409       .  A
C1934     Br1946   1.929       .  S
C1935      C1936   1.412       .  A
C1935     Br1950   1.932       .  S
C1936      C1939   1.496       .  S
C1936      C1937   1.410       .  A
C1937      C1938   1.411       .  A
C1937     Br1945   1.931       .  S
C1938     Br1949   1.921       .  S
C1939      C1940   1.404       .  A
C1939      C1944   1.410       .  A
C1940      C1941   1.407       .  A
C1940     Br1951   1.937       .  S
C1941      C1942   1.431       .  A
C1941     Br1947   1.940       .  S
C1942      C1943   1.427       .  A
C1943      C1944   1.416       .  A
C1943     Br1952   1.935       .  S
C1944     Br1948   1.932       .  S
C1953      C1954   1.411       .  A
C1953      C1958   1.407       .  A
C1954      C1955   1.404       .  A
C1954     Br1966   1.931       .  S
C1955      C1956   1.408       .  A
C1955     Br1970   1.930       .  S
C1956      C1959   1.476       .  S
C1956      C1957   1.409       .  A
C1957      C1958   1.401       .  A
C1957     Br1965   1.931       .  S
C1958     Br1969   1.930       .  S
C1959      C1960   1.405       .  A
C1959      C1964   1.405       .  A
C1960      C1961   1.405       .  A
C1960     Br1971   1.933       .  S
C1961      C1962   1.420       .  A
C1961     Br1967   1.935       .  S
C1962      C1963   1.419       .  A
C1963      C1964   1.404       .  A
C1963     Br1972   1.933       .  S
C1964     Br1968   1.934       .  S
C1973      C1974   1.409       .  A
C1973      C1978   1.408       .  A
C1974      C1975   1.404       .  A
C1974     Br1986   1.933       .  S
C1975      C1976   1.412       .  A
C1975     Br1990   1.931       .  S
C1976      C1979   1.485       .  S
C1976      C1977   1.413       .  A
C1977      C1978   1.405       .  A
C1977     Br1985   1.932       .  S
C1978     Br1989   1.929       .  S
C1979      C1980   1.408       .  A
C1979      C1984   1.408       .  A
C1980      C1981   1.407       .  A
C1980     Br1991   1.933       .  S
C1981      C1982   1.418       .  A
C1981     Br1987   1.934       .  S
C1982      C1983   1.421       .  A
C1983      C1984   1.406       .  A
C1983     Br1992   1.934       .  S
C1984     Br1988   1.936       .  S
C1993      C1994   1.418       .  A
C1993      C1998   1.417       .  A
C1994      C1995   1.402       .  A
C1994     Br2006   1.932       .  S
C1995      C1996   1.404       .  A
C1995     Br2010   1.933       .  S
C1996      C1999   1.474       .  S
C1996      C1997   1.406       .  A
C1997      C1998   1.405       .  A
C1997     Br2005   1.932       .  S
C1998     Br2009   1.933       .  S
C1999      C2000   1.407       .  A
C1999      C2004   1.409       .  A
C2000      C2001   1.403       .  A
C2000     Br2011   1.930       .  S
C2001      C2002   1.410       .  A
C2001     Br2007   1.930       .  S
C2002      C2003   1.407       .  A
C2003      C2004   1.402       .  A
C2003     Br2012   1.930       .  S
C2004     Br2008   1.931       .  S
C2013      C2014   1.412       .  A
C2013      C2018   1.409       .  A
C2014      C2015   1.402       .  A
C2014     Br2026   1.933       .  S
C2015      C2016   1.409       .  A
C2015     Br2030   1.933       .  S
C2016      C2019   1.476       .  S
C2016      C2017   1.410       .  A
C2017      C2018   1.402       .  A
C2017     Br2025   1.933       .  S
C2018     Br2029   1.930       .  S
C2019      C2020   1.406       .  A
C2019      C2024   1.407       .  A
C2020      C2021   1.402       .  A
C2020     Br2031   1.934       .  S
C2021      C2022   1.419       .  A
C2021     Br2027   1.935       .  S
C2022      C2023   1.419       .  A
C2023      C2024   1.403       .  A
C2023     Br2032   1.934       .  S
C2024     Br2028   1.936       .  S
C2033      C2034   1.411       .  A
C2033      C2038   1.413       .  A
C2034      C2035   1.410       .  A
C2034     Br2046   1.928       .  S
C2035      C2036   1.411       .  A
C2035     Br2050   1.930       .  S
C2036      C2039   1.490       .  S
C2036      C2037   1.409       .  A
C2037      C2038   1.409       .  A
C2037     Br2045   1.930       .  S
C2038     Br2049   1.931       .  S
C2039      C2040   1.408       .  A
C2039      C2044   1.402       .  A
C2040      C2041   1.416       .  A
C2040     Br2051   1.931       .  S
C2041      C2042   1.422       .  A
C2041     Br2047   1.923       .  S
C2042      C2043   1.419       .  A
C2043      C2044   1.405       .  A
C2043     Br2052   1.917       .  S
C2044     Br2048   1.934       .  S
C2053      C2054   1.412       .  A
C2053      C2058   1.415       .  A
C2054      C2055   1.411       .  A
C2054     Br2066   1.929       .  S
C2055      C2056   1.411       .  A
C2055     Br2070   1.929       .  S
C2056      C2059   1.493       .  S
C2056      C2057   1.409       .  A
C2057      C2058   1.410       .  A
C2057     Br2065   1.930       .  S
C2058     Br2069   1.932       .  S
C2059      C2060   1.410       .  A
C2059      C2064   1.408       .  A
C2060      C2061   1.413       .  A
C2060     Br2071   1.929       .  S
C2061      C2062   1.414       .  A
C2061     Br2067   1.931       .  S
C2062      C2063   1.414       .  A
C2063      C2064   1.410       .  A
C2063     Br2072   1.930       .  S
C2064     Br2068   1.930       .  S
C2073      C2074   1.420       .  A
C2073      C2078   1.419       .  A
C2074      C2075   1.411       .  A
C2074     Br2086   1.934       .  S
C2075      C2076   1.409       .  A
C2075     Br2090   1.929       .  S
C2076      C2079   1.498       .  S
C2076      C2077   1.409       .  A
C2077      C2078   1.414       .  A
C2077     Br2085   1.931       .  S
C2078     Br2089   1.924       .  S
C2079      C2080   1.412       .  A
C2079      C2084   1.410       .  A
C2080      C2081   1.415       .  A
C2080     Br2091   1.928       .  S
C2081      C2082   1.413       .  A
C2081     Br2087   1.930       .  S
C2082      C2083   1.416       .  A
C2083      C2084   1.410       .  A
C2083     Br2092   1.932       .  S
C2084     Br2088   1.932       .  S
C2093      C2094   1.428       .  A
C2093      C2098   1.422       .  A
C2094      C2095   1.415       .  A
C2094     Br2106   1.934       .  S
C2095      C2096   1.408       .  A
C2095     Br2110   1.932       .  S
C2096      C2099   1.491       .  S
C2096      C2097   1.403       .  A
C2097      C2098   1.406       .  A
C2097     Br2105   1.933       .  S
C2098     Br2109   1.922       .  S
C2099      C2100   1.411       .  A
C2099      C2104   1.407       .  A
C2100      C2101   1.411       .  A
C2100     Br2111   1.932       .  S
C2101      C2102   1.414       .  A
C2101     Br2107   1.927       .  S
C2102      C2103   1.415       .  A
C2103      C2104   1.409       .  A
C2103     Br2112   1.930       .  S
C2104     Br2108   1.929       .  S
O2113     Zr2149   2.460       .  S
O2113      C2124   1.297       .  A
O2114     Zr2148   2.455       .  S
O2114      C2125   1.295       .  A
O2115     Zr2121   2.424       .  S
O2115      C2126   1.289       .  A
O2116     Zr2121   2.430       .  S
O2116      C2127   1.289       .  A
O2117     Zr2151   2.442       .  S
O2117      C2127   1.292       .  A
O2118     Zr2150   2.436       .  S
O2118      C2126   1.290       .  A
O2119     Zr2121   2.446       .  S
O2119      C2125   1.294       .  A
O2120     Zr2121   2.440       .  S
O2120      C2124   1.293       .  A
Zr2121     O2122   2.334       .  S
Zr2121     O2123   2.341       .  S
Zr2121     O2131   2.339       .  S
Zr2121     O2129   2.339       .  S
O2122     Zr2148   2.357       .  S
O2122     Zr2151   2.336       .  S
O2123     Zr2149   2.354       .  S
O2123     Zr2150   2.334       .  S
C2124      C2806   1.489       .  S
C2125      C2626   1.490       .  S
C2126      C2666   1.485       .  S
C2127      C2686   1.490       .  S
H2128      O2129   0.958       .  S
O2129     Zr2148   2.352       .  S
O2129     Zr2150   2.338       .  S
H2130      O2131   0.967       .  S
O2131     Zr2149   2.356       .  S
O2131     Zr2151   2.333       .  S
O2132     Zr2148   2.466       .  S
O2132      C2155   1.295       .  A
O2133     Zr2149   2.483       .  S
O2133      C2156   1.301       .  A
O2134     Zr2150   2.433       .  S
O2134      C2157   1.291       .  A
O2135     Zr2151   2.428       .  S
O2135      C2158   1.291       .  A
O2136     Zr2151   2.435       .  S
O2136      C2159   1.291       .  A
O2137     Zr2150   2.428       .  S
O2137      C2160   1.290       .  A
O2138     Zr2152   2.428       .  S
O2138      C2161   1.289       .  A
O2139     Zr2152   2.426       .  S
O2139      C2162   1.289       .  A
O2140     Zr2150   2.424       .  S
O2140      C2161   1.288       .  A
O2141     Zr2151   2.427       .  S
O2141      C2162   1.289       .  A
O2142     Zr2148   2.471       .  S
O2142      C2157   1.298       .  A
O2143     Zr2149   2.469       .  S
O2143      C2160   1.298       .  A
O2144     Zr2149   2.463       .  S
O2144      C2159   1.297       .  A
O2145     Zr2148   2.468       .  S
O2145      C2158   1.299       .  A
O2146     Zr2152   2.425       .  S
O2146      C2155   1.287       .  A
O2147     Zr2152   2.419       .  S
O2147      C2156   1.288       .  A
Zr2148     O2154   2.341       .  S
Zr2148     O2166   2.349       .  S
Zr2149     O2153   2.347       .  S
Zr2149     O2164   2.342       .  S
Zr2150     O2154   2.337       .  S
Zr2150     O2164   2.341       .  S
Zr2151     O2153   2.341       .  S
Zr2151     O2166   2.348       .  S
Zr2152     O2153   2.336       .  S
Zr2152     O2154   2.334       .  S
Zr2152     O2166   2.333       .  S
Zr2152     O2164   2.338       .  S
C2155      C2646   1.513       .  S
C2156      C2786   1.492       .  S
C2157      C2577   1.484       .  S
C2158      C2597   1.491       .  S
C2159      C2737   1.482       .  S
C2160      C2757   1.487       .  S
C2161      C2726   1.482       .  S
C2162      C2697   1.480       .  S
H2163      O2164   0.966       .  S
H2165      O2166   0.965       .  S
N2167      C2172   1.352       .  A
N2167      H2199   1.037       .  S
N2168      C2176   1.350       .  A
N2169      C2174   1.352       .  A
N2169      H2200   1.035       .  S
N2170      C2178   1.349       .  A
C2171      C2179   1.386       .  A
C2171      C2187   1.412       .  A
C2172      C2188   1.415       .  A
C2172      C2180   1.388       .  A
C2173      C2181   1.388       .  A
C2173      C2190   1.417       .  A
C2174      C2189   1.414       .  A
C2174      C2182   1.387       .  A
C2175      C2187   1.410       .  A
C2175      C2183   1.386       .  A
C2176      C2190   1.413       .  A
C2176      C2184   1.388       .  A
C2177      C2185   1.386       .  A
C2177      C2188   1.411       .  A
C2178      C2186   1.387       .  A
C2178      C2189   1.411       .  A
C2179      H2191   1.082       .  S
C2180      H2192   1.082       .  S
C2181      H2193   1.082       .  S
C2182      H2194   1.082       .  S
C2183      H2195   1.083       .  S
C2184      H2196   1.082       .  S
C2185      H2197   1.082       .  S
C2186      H2198   1.082       .  S
C2187      C2706   1.481       .  S
C2188      C2677   1.485       .  S
C2189      C2657   1.482       .  S
C2190      C2717   1.484       .  S
O2201     Zr2237   2.447       .  S
O2201      C2212   1.293       .  A
O2202     Zr2236   2.453   1_655  S
O2202      C2213   1.295       .  A
O2203      C2214   1.291       .  A
O2204     Zr2209   2.422   1_655  S
O2204      C2215   1.287       .  A
O2205     Zr2239   2.437       .  S
O2205      C2215   1.290       .  A
O2206     Zr2238   2.428       .  S
O2206      C2214   1.290       .  A
O2207     Zr2209   2.446       .  S
O2207      C2213   1.294   1_455  A
O2208     Zr2209   2.457   1_556  S
O2208      C2212   1.295       .  A
Zr2209     O2210   2.341   1_455  S
Zr2209     O2219   2.342   1_454  S
O2210     Zr2236   2.349   1_655  S
O2210     Zr2239   2.332       .  S
O2211     Zr2238   2.343   1_556  S
C2212      C2566   1.480       .  S
C2213      C2377   1.486       .  S
C2214      C2417   1.479       .  S
C2215      C2437   1.489       .  S
H2216      O2217   0.965       .  S
O2217     Zr2238   2.339       .  S
H2218      O2219   0.964       .  S
O2219     Zr2237   2.350   1_655  S
O2219     Zr2239   2.335   1_556  S
O2220      C2243   1.295       .  A
O2221      C2244   1.297       .  A
O2222     Zr2238   2.450       .  S
O2222      C2245   1.295       .  A
O2223     Zr2239   2.421       .  S
O2223      C2246   1.288       .  A
O2224     Zr2239   2.420   1_556  S
O2225     Zr2238   2.448   1_556  S
O2226      C2249   1.289       .  A
O2227     Zr2240   2.429   1_656  S
O2227      C2250   1.289       .  A
O2228      C2249   1.291       .  A
O2229      C2250   1.290   1_554  A
O2230      C2245   1.295       .  A
O2231      C2248   1.298       .  A
O2232      C2247   1.298       .  A
O2233     Zr2236   2.470   1_655  S
O2233      C2246   1.298       .  A
O2234     Zr2240   2.430   1_655  S
O2234      C2243   1.289   1_655  A
O2235     Zr2240   2.423   1_656  S
O2235      C2244   1.289       .  A
Zr2240     O2241   2.332   1_454  S
Zr2240     O2254   2.335   1_455  S
C2243      C2397   1.503       .  S
C2244      C2546   1.500       .  S
C2245      C2337   1.487       .  S
C2246      C2366   1.498       .  S
C2249      C2477   1.464       .  S
C2250      C2457   1.485       .  S
H2251      O2252   0.960       .  S
H2253      O2254   0.964       .  S
N2255      C2260   1.349   1_556  A
N2255      C2259   1.350   1_556  A
N2255      H2287   1.042       .  S
N2256      C2263   1.349       .  A
N2256      C2264   1.347       .  A
N2257      C2262   1.350       .  A
N2257      C2261   1.351       .  A
N2257      H2288   1.040       .  S
N2258      C2265   1.348       .  A
N2258      C2266   1.348       .  A
C2259      C2267   1.388       .  A
C2259      C2275   1.413   1_554  A
C2260      C2276   1.408       .  A
C2260      C2268   1.386       .  A
C2261      C2269   1.386       .  A
C2261      C2278   1.411       .  A
C2262      C2277   1.412       .  A
C2262      C2270   1.388   1_556  A
C2263      C2275   1.414       .  A
C2263      C2271   1.388       .  A
C2264      C2278   1.407       .  A
C2264      C2272   1.385       .  A
C2265      C2273   1.387       .  A
C2265      C2276   1.409   1_556  A
C2266      C2274   1.386       .  A
C2266      C2277   1.408       .  A
C2267      C2268   1.380       .  A
C2267      H2279   1.082       .  S
C2268      H2280   1.082       .  S
C2269      C2270   1.376   1_556  A
C2269      H2281   1.082   1_556  S
C2270      H2282   1.082       .  S
C2271      C2272   1.377       .  A
C2271      H2283   1.082       .  S
C2272      H2284   1.082       .  S
C2273      C2274   1.374       .  A
C2273      H2285   1.082       .  S
C2274      H2286   1.082       .  S
C2275      C2486   1.494       .  S
C2276      C2426   1.482       .  S
C2277      C2446   1.480       .  S
C2278      C2466   1.484       .  S
C2289      C2295   1.538       .  S
C2289      C2293   1.530       .  S
C2289      C2406   1.555       .  S
C2290      H2297   1.082       .  S
C2290      C2291   1.371       .  D
C2291      C2746   1.515       .  S
C2292      C2296   1.552       .  S
C2292      C2294   1.567       .  S
C2292      H2298   1.099       .  S
C2293      H2299   1.086       .  S
C2293      C2294   1.360       .  D
C2294      C2766   1.495       .  S
C2295      H2300   1.085       .  S
C2295      C2296   1.373       .  D
C2296      C2386   1.523       .  S
C2301      C2302   1.548       .  S
C2301      C2305   1.524       .  S
C2301      C2797   1.553       .  S
C2302      H2309   1.085       .  S
C2303      C2304   1.553   1_545  S
C2303      C2357   1.521       .  S
C2304      C2308   1.554       .  S
C2304      C2306   1.549   1_565  S
C2304      H2310   1.104       .  S
C2305      H2311   1.087       .  S
C2306      C2346   1.492       .  S
C2307      H2312   1.083       .  S
C2307      C2308   1.372   1_545  D
C2308      C2777   1.511       .  S
C2313      C2314   1.544       .  S
C2313      C2319   1.539       .  S
C2313      C2537   1.561       .  S
C2314      H2321   1.082       .  S
C2314      C2315   1.370       .  D
C2315      C2316   1.552       .  S
C2315      C2586   1.500       .  S
C2316      C2320   1.550       .  S
C2316      H2322   1.106       .  S
C2317      H2323   1.085       .  S
C2317      C2318   1.361       .  D
C2318      C2606   1.500       .  S
C2319      H2324   1.084       .  S
C2319      C2320   1.375       .  D
C2320      C2557   1.520       .  S
C2325      C2326   1.541       .  S
C2325      C2329   1.530       .  S
C2325      C2617   1.559       .  S
C2326      H2333   1.081       .  S
C2327      C2328   1.553   1_545  S
C2327      C2526   1.512       .  S
C2328      C2332   1.541       .  S
C2328      C2330   1.554   1_565  S
C2328      H2334   1.107       .  S
C2329      H2335   1.086       .  S
C2330      C2506   1.503   1_545  S
C2331      H2336   1.084       .  S
C2331      C2332   1.369   1_545  D
C2332      C2637   1.496       .  S
C2337      C2338   1.412       .  A
C2338      C2339   1.410       .  A
C2338     Br2350   1.928       .  S
C2339      C2340   1.411       .  A
C2339     Br2354   1.931       .  S
C2340      C2343   1.496       .  S
C2341      C2342   1.412       .  A
C2341     Br2349   1.930       .  S
C2342     Br2353   1.930       .  S
C2343      C2344   1.410       .  A
C2344      C2345   1.410       .  A
C2344     Br2355   1.931       .  S
C2345      C2346   1.415   1_565  A
C2345     Br2351   1.933       .  S
C2347      C2348   1.412       .  A
C2347     Br2356   1.927       .  S
C2348     Br2352   1.931       .  S
C2357      C2358   1.430   1_545  A
C2358      C2359   1.415       .  A
C2358     Br2370   1.925       .  S
C2359      C2360   1.406       .  A
C2359     Br2374   1.933       .  S
C2360      C2363   1.491       .  S
C2361      C2362   1.403       .  A
C2361     Br2369   1.936       .  S
C2362     Br2373   1.918       .  S
C2363      C2364   1.410       .  A
C2363      C2368   1.407       .  A
C2364      C2365   1.414       .  A
C2364     Br2375   1.930       .  S
C2365      C2366   1.419       .  A
C2365     Br2371   1.931       .  S
C2366      C2367   1.423       .  A
C2367      C2368   1.404       .  A
C2377      C2382   1.412       .  A
C2378      C2379   1.413       .  A
C2378     Br2390   1.929       .  S
C2379     Br2394   1.929       .  S
C2380      C2383   1.492       .  S
C2380      C2381   1.408       .  A
C2381      C2382   1.407       .  A
C2381     Br2389   1.931       .  S
C2382     Br2393   1.928       .  S
C2383      C2388   1.404       .  A
C2384      C2385   1.410       .  A
C2384     Br2395   1.937       .  S
C2385     Br2391   1.933       .  S
C2386      C2387   1.430       .  A
C2387      C2388   1.415       .  A
C2387     Br2396   1.928       .  S
C2388     Br2392   1.934       .  S
C2397      C2398   1.424   1_455  A
C2398      C2399   1.414       .  A
C2398     Br2410   1.933       .  S
C2399      C2400   1.407   1_655  A
C2399     Br2414   1.930       .  S
C2400      C2403   1.490   1_455  S
C2401      C2402   1.406       .  A
C2401     Br2409   1.938       .  S
C2402     Br2413   1.936       .  S
C2403      C2404   1.407       .  A
C2404      C2405   1.414       .  A
C2404     Br2415   1.933       .  S
C2405      C2406   1.428       .  A
C2405     Br2411   1.932       .  S
C2407      C2408   1.405       .  A
C2407     Br2416   1.923       .  S
C2408     Br2412   1.934       .  S
C2417      C2418   1.415   1_554  A
C2417      C2422   1.417       .  A
C2418      C2419   1.404       .  A
C2418     Br2430   1.934       .  S
C2419      C2420   1.406   1_556  A
C2419     Br2434   1.931       .  S
C2420      C2423   1.477       .  S
C2420      C2421   1.405       .  A
C2421      C2422   1.404       .  A
C2421     Br2429   1.933       .  S
C2422     Br2433   1.931       .  S
C2423      C2424   1.410   1_554  A
C2423      C2428   1.408       .  A
C2424      C2425   1.404       .  A
C2424     Br2435   1.933       .  S
C2425      C2426   1.409   1_556  A
C2425     Br2431   1.930       .  S
C2426      C2427   1.409       .  A
C2427      C2428   1.404       .  A
C2427     Br2436   1.929       .  S
C2428     Br2432   1.929       .  S
C2437      C2438   1.420       .  A
C2437      C2442   1.423   1_554  A
C2438      C2439   1.405       .  A
C2438     Br2450   1.936       .  S
C2439      C2440   1.407   1_554  A
C2439     Br2454   1.935       .  S
C2440      C2443   1.480       .  S
C2440      C2441   1.406       .  A
C2441      C2442   1.405       .  A
C2441     Br2449   1.935       .  S
C2442     Br2453   1.936       .  S
C2443      C2444   1.410   1_556  A
C2443      C2448   1.411       .  A
C2444      C2445   1.403       .  A
C2444     Br2455   1.932       .  S
C2445      C2446   1.408   1_554  A
C2445     Br2451   1.929       .  S
C2446      C2447   1.407       .  A
C2447      C2448   1.404       .  A
C2447     Br2456   1.930       .  S
C2448     Br2452   1.931       .  S
C2457      C2458   1.417       .  A
C2457      C2462   1.417   1_556  A
C2458      C2459   1.407       .  A
C2458     Br2470   1.931       .  S
C2459      C2460   1.406       .  A
C2459     Br2474   1.931       .  S
C2460      C2463   1.483       .  S
C2460      C2461   1.408   1_556  A
C2461      C2462   1.406       .  A
C2461     Br2469   1.932       .  S
C2462     Br2473   1.935       .  S
C2463      C2464   1.412       .  A
C2463      C2468   1.408   1_556  A
C2464      C2465   1.408       .  A
C2464     Br2475   1.930       .  S
C2465      C2466   1.409       .  A
C2465     Br2471   1.928       .  S
C2466      C2467   1.409   1_556  A
C2467      C2468   1.403       .  A
C2467     Br2476   1.931       .  S
C2468     Br2472   1.931       .  S
C2477      C2478   1.409       .  A
C2477      C2482   1.404   1_556  A
C2478      C2479   1.406       .  A
C2478     Br2490   1.932       .  S
C2479      C2480   1.413       .  A
C2479     Br2494   1.930       .  S
C2480      C2483   1.482       .  S
C2480      C2481   1.411   1_556  A
C2481      C2482   1.401       .  A
C2481     Br2489   1.932       .  S
C2482     Br2493   1.925       .  S
C2483      C2484   1.409   1_556  A
C2483      C2488   1.408       .  A
C2484      C2485   1.403       .  A
C2484     Br2495   1.933       .  S
C2485      C2486   1.414   1_554  A
C2485     Br2491   1.933       .  S
C2486      C2487   1.417       .  A
C2487      C2488   1.406       .  A
C2487     Br2496   1.933       .  S
C2488     Br2492   1.933       .  S
C2497      C2502   1.420       .  A
C2498      C2499   1.412       .  A
C2498     Br2510   1.931       .  S
C2499     Br2514   1.930       .  S
C2500      C2503   1.490       .  S
C2500      C2501   1.406       .  A
C2501      C2502   1.407       .  A
C2501     Br2509   1.933       .  S
C2502     Br2513   1.933       .  S
C2503      C2508   1.409       .  A
C2504      C2505   1.407       .  A
C2504     Br2515   1.931       .  S
C2505     Br2511   1.928       .  S
C2506      C2507   1.416       .  A
C2507      C2508   1.413       .  A
C2507     Br2516   1.920       .  S
C2508     Br2512   1.931       .  S
C2517      C2522   1.424       .  A
C2518      C2519   1.409       .  A
C2518     Br2530   1.934       .  S
C2519     Br2534   1.938       .  S
C2520      C2523   1.498       .  S
C2520      C2521   1.410       .  A
C2521      C2522   1.418       .  A
C2521     Br2529   1.932       .  S
C2522     Br2533   1.930       .  S
C2523      C2528   1.409       .  A
C2524      C2525   1.411       .  A
C2524     Br2535   1.932       .  S
C2525     Br2531   1.939       .  S
C2526      C2527   1.418   1_545  A
C2527      C2528   1.411       .  A
C2527     Br2536   1.928       .  S
C2528     Br2532   1.931       .  S
C2537      C2538   1.427       .  A
C2538      C2539   1.410       .  A
C2538     Br2550   1.927       .  S
C2539      C2540   1.403       .  A
C2539     Br2554   1.934       .  S
C2540      C2543   1.492       .  S
C2541      C2542   1.414       .  A
C2541     Br2549   1.937       .  S
C2542     Br2553   1.936       .  S
C2543      C2544   1.406       .  A
C2544      C2545   1.405       .  A
C2544     Br2555   1.937       .  S
C2545      C2546   1.423       .  A
C2545     Br2551   1.931       .  S
C2547      C2548   1.414       .  A
C2547     Br2556   1.932       .  S
C2548     Br2552   1.928       .  S
C2557      C2558   1.428       .  A
C2558      C2559   1.415       .  A
C2558     Br2570   1.927       .  S
C2559      C2560   1.407       .  A
C2559     Br2574   1.932       .  S
C2560      C2563   1.496       .  S
C2561      C2562   1.407       .  A
C2561     Br2569   1.935       .  S
C2562     Br2573   1.930       .  S
C2563      C2568   1.413       .  A
C2564      C2565   1.409       .  A
C2564     Br2575   1.930       .  S
C2565     Br2571   1.927       .  S
C2566      C2567   1.410   1_455  A
C2567      C2568   1.411       .  A
C2567     Br2576   1.927       .  S
C2568     Br2572   1.930       .  S
C2577      C2578   1.412       .  A
C2577      C2582   1.411       .  A
C2578      C2579   1.415       .  A
C2578     Br2590   1.929       .  S
C2579      C2580   1.413       .  A
C2579     Br2594   1.928       .  S
C2580      C2583   1.495       .  S
C2580      C2581   1.409       .  A
C2581      C2582   1.407       .  A
C2581     Br2589   1.931       .  S
C2582     Br2593   1.930       .  S
C2583      C2584   1.412       .  A
C2583      C2588   1.407       .  A
C2584      C2585   1.413       .  A
C2584     Br2595   1.929       .  S
C2585      C2586   1.411       .  A
C2585     Br2591   1.923       .  S
C2586      C2587   1.418       .  A
C2587      C2588   1.410       .  A
C2587     Br2596   1.929       .  S
C2588     Br2592   1.931       .  S
C2597      C2598   1.419       .  A
C2597      C2602   1.414       .  A
C2598      C2599   1.409       .  A
C2598     Br2610   1.932       .  S
C2599      C2600   1.407       .  A
C2599     Br2614   1.931       .  S
C2600      C2603   1.494       .  S
C2600      C2601   1.411       .  A
C2601      C2602   1.412       .  A
C2601     Br2609   1.928       .  S
C2602     Br2613   1.932       .  S
C2603      C2604   1.409       .  A
C2603      C2608   1.408       .  A
C2604      C2605   1.413       .  A
C2604     Br2615   1.930       .  S
C2605      C2606   1.416       .  A
C2605     Br2611   1.925       .  S
C2606      C2607   1.418       .  A
C2607      C2608   1.410       .  A
C2607     Br2616   1.932       .  S
C2608     Br2612   1.931       .  S
C2617      C2618   1.428       .  A
C2617      C2622   1.426       .  A
C2618      C2619   1.410       .  A
C2618     Br2630   1.933       .  S
C2619      C2620   1.404       .  A
C2619     Br2634   1.932       .  S
C2620      C2623   1.493       .  S
C2620      C2621   1.406       .  A
C2621      C2622   1.413       .  A
C2621     Br2629   1.933       .  S
C2622     Br2633   1.927       .  S
C2623      C2624   1.408       .  A
C2623      C2628   1.411       .  A
C2624      C2625   1.408       .  A
C2624     Br2635   1.930       .  S
C2625      C2626   1.414       .  A
C2625     Br2631   1.931       .  S
C2626      C2627   1.415       .  A
C2627      C2628   1.413       .  A
C2627     Br2636   1.928       .  S
C2628     Br2632   1.930       .  S
C2637      C2638   1.414       .  A
C2637      C2642   1.413       .  A
C2638      C2639   1.409       .  A
C2638     Br2650   1.929       .  S
C2639      C2640   1.412       .  A
C2639     Br2654   1.932       .  S
C2640      C2643   1.496       .  S
C2640      C2641   1.410       .  A
C2641      C2642   1.411       .  A
C2641     Br2649   1.931       .  S
C2642     Br2653   1.921       .  S
C2643      C2644   1.404       .  A
C2643      C2648   1.410       .  A
C2644      C2645   1.407       .  A
C2644     Br2655   1.937       .  S
C2645      C2646   1.431       .  A
C2645     Br2651   1.940       .  S
C2646      C2647   1.427       .  A
C2647      C2648   1.416       .  A
C2647     Br2656   1.935       .  S
C2648     Br2652   1.932       .  S
C2657      C2658   1.411       .  A
C2657      C2662   1.407       .  A
C2658      C2659   1.404       .  A
C2658     Br2670   1.931       .  S
C2659      C2660   1.408       .  A
C2659     Br2674   1.930       .  S
C2660      C2663   1.476       .  S
C2660      C2661   1.409       .  A
C2661      C2662   1.401       .  A
C2661     Br2669   1.931       .  S
C2662     Br2673   1.930       .  S
C2663      C2664   1.405       .  A
C2663      C2668   1.405       .  A
C2664      C2665   1.405       .  A
C2664     Br2675   1.933       .  S
C2665      C2666   1.420       .  A
C2665     Br2671   1.935       .  S
C2666      C2667   1.419       .  A
C2667      C2668   1.404       .  A
C2667     Br2676   1.933       .  S
C2668     Br2672   1.934       .  S
C2677      C2678   1.409       .  A
C2677      C2682   1.408       .  A
C2678      C2679   1.404       .  A
C2678     Br2690   1.933       .  S
C2679      C2680   1.412       .  A
C2679     Br2694   1.931       .  S
C2680      C2683   1.485       .  S
C2680      C2681   1.413       .  A
C2681      C2682   1.405       .  A
C2681     Br2689   1.932       .  S
C2682     Br2693   1.929       .  S
C2683      C2684   1.408       .  A
C2683      C2688   1.408       .  A
C2684      C2685   1.407       .  A
C2684     Br2695   1.933       .  S
C2685      C2686   1.418       .  A
C2685     Br2691   1.934       .  S
C2686      C2687   1.421       .  A
C2687      C2688   1.406       .  A
C2687     Br2696   1.934       .  S
C2688     Br2692   1.936       .  S
C2697      C2698   1.418       .  A
C2697      C2702   1.417       .  A
C2698      C2699   1.402       .  A
C2698     Br2710   1.932       .  S
C2699      C2700   1.404       .  A
C2699     Br2714   1.933       .  S
C2700      C2703   1.474       .  S
C2700      C2701   1.406       .  A
C2701      C2702   1.405       .  A
C2701     Br2709   1.932       .  S
C2702     Br2713   1.933       .  S
C2703      C2704   1.407       .  A
C2703      C2708   1.409       .  A
C2704      C2705   1.403       .  A
C2704     Br2715   1.930       .  S
C2705      C2706   1.410       .  A
C2705     Br2711   1.930       .  S
C2706      C2707   1.407       .  A
C2707      C2708   1.402       .  A
C2707     Br2716   1.930       .  S
C2708     Br2712   1.931       .  S
C2717      C2718   1.412       .  A
C2717      C2722   1.409       .  A
C2718      C2719   1.402       .  A
C2718     Br2730   1.933       .  S
C2719      C2720   1.409       .  A
C2719     Br2734   1.933       .  S
C2720      C2723   1.476       .  S
C2720      C2721   1.410       .  A
C2721      C2722   1.402       .  A
C2721     Br2729   1.933       .  S
C2722     Br2733   1.930       .  S
C2723      C2724   1.406       .  A
C2723      C2728   1.407       .  A
C2724      C2725   1.402       .  A
C2724     Br2735   1.934       .  S
C2725      C2726   1.419       .  A
C2725     Br2731   1.935       .  S
C2726      C2727   1.419       .  A
C2727      C2728   1.403       .  A
C2727     Br2736   1.934       .  S
C2728     Br2732   1.936       .  S
C2737      C2738   1.411       .  A
C2737      C2742   1.413       .  A
C2738      C2739   1.410       .  A
C2738     Br2750   1.928       .  S
C2739      C2740   1.411       .  A
C2739     Br2754   1.930       .  S
C2740      C2743   1.490       .  S
C2740      C2741   1.409       .  A
C2741      C2742   1.409       .  A
C2741     Br2749   1.930       .  S
C2742     Br2753   1.931       .  S
C2743      C2744   1.408       .  A
C2743      C2748   1.402       .  A
C2744      C2745   1.416       .  A
C2744     Br2755   1.931       .  S
C2745      C2746   1.422       .  A
C2745     Br2751   1.923       .  S
C2746      C2747   1.419       .  A
C2747      C2748   1.405       .  A
C2747     Br2756   1.917       .  S
C2748     Br2752   1.934       .  S
C2757      C2758   1.412       .  A
C2757      C2762   1.415       .  A
C2758      C2759   1.411       .  A
C2758     Br2770   1.929       .  S
C2759      C2760   1.411       .  A
C2759     Br2774   1.929       .  S
C2760      C2763   1.493       .  S
C2760      C2761   1.409       .  A
C2761      C2762   1.410       .  A
C2761     Br2769   1.930       .  S
C2762     Br2773   1.932       .  S
C2763      C2764   1.410       .  A
C2763      C2768   1.408       .  A
C2764      C2765   1.413       .  A
C2764     Br2775   1.929       .  S
C2765      C2766   1.414       .  A
C2765     Br2771   1.931       .  S
C2766      C2767   1.414       .  A
C2767      C2768   1.410       .  A
C2767     Br2776   1.930       .  S
C2768     Br2772   1.930       .  S
C2777      C2778   1.420       .  A
C2777      C2782   1.419       .  A
C2778      C2779   1.411       .  A
C2778     Br2790   1.934       .  S
C2779      C2780   1.409       .  A
C2779     Br2794   1.929       .  S
C2780      C2783   1.498       .  S
C2780      C2781   1.409       .  A
C2781      C2782   1.414       .  A
C2781     Br2789   1.931       .  S
C2782     Br2793   1.924       .  S
C2783      C2784   1.412       .  A
C2783      C2788   1.410       .  A
C2784      C2785   1.415       .  A
C2784     Br2795   1.928       .  S
C2785      C2786   1.413       .  A
C2785     Br2791   1.930       .  S
C2786      C2787   1.416       .  A
C2787      C2788   1.410       .  A
C2787     Br2796   1.932       .  S
C2788     Br2792   1.932       .  S
C2797      C2798   1.428       .  A
C2797      C2802   1.422       .  A
C2798      C2799   1.415       .  A
C2798     Br2810   1.934       .  S
C2799      C2800   1.408       .  A
C2799     Br2814   1.932       .  S
C2800      C2803   1.491       .  S
C2800      C2801   1.403       .  A
C2801      C2802   1.406       .  A
C2801     Br2809   1.933       .  S
C2802     Br2813   1.922       .  S
C2803      C2804   1.411       .  A
C2803      C2808   1.407       .  A
C2804      C2805   1.411       .  A
C2804     Br2815   1.932       .  S
C2805      C2806   1.414       .  A
C2805     Br2811   1.927       .  S
C2806      C2807   1.415       .  A
C2807      C2808   1.409       .  A
C2807     Br2816   1.930       .  S
C2808     Br2812   1.929       .  S
