geometry optimzed in LAMMPS
_audit_creation_date              2020-12-01 
_audit_creation_method            'lammps2cif' 
_symmetry_space_group_name_H-M    'P1' 
_symmetry_Int_Tables_number       1 
_symmetry_cell_setting            triclinic 
loop_ 
_symmetry_equiv_pos_as_xyz 
  x,y,z 
_cell_length_a                    37.36186101 
_cell_length_b                    35.33771996519962 
_cell_length_c                    30.811671765780403 
_cell_angle_alpha                 89.28188662895771 
_cell_angle_beta                  89.78102102158346 
_cell_angle_gamma                 88.17617596952873 
loop_ 
_atom_site_label 
_atom_site_type_symbol 
_atom_site_fract_x 
_atom_site_fract_y 
_atom_site_fract_z 
_atom_site_charge 
O1          O  0.02378902  0.21258784  0.45310025    -0.73700
O2          O  0.02194612  0.28741511  0.54206181    -0.73700
O3          O  0.02161661  0.21143202  0.54086869    -0.73800
O4          O  0.02422033  0.28956520  0.45416921    -0.73800
O5          O  0.46757469  0.29039275  0.45268001    -0.73800
O6          O  0.46341195  0.21403949  0.54112336    -0.73800
O7          O  0.46533062  0.29099477  0.54006462    -0.73700
O8          O  0.46587301  0.21416201  0.45308718    -0.73800
Ni9        Ni  0.02502112  0.25017613  0.49749570     1.25400
Ni10       Ni  0.46339954  0.25247256  0.49672004     1.25400
C11         C  0.49588388  0.19995799  0.43980421     0.88500
C12         C  0.49516795  0.30191679  0.55514815     0.88400
C13         C  0.99137499  0.19971140  0.55404444     0.88400
C14         C  0.99479715  0.30349465  0.43880547     0.88600
C15         C  0.00246823  0.00049081  0.24040250    -0.01800
C16         C  0.00316168  0.00207131  0.75918573    -0.01800
O17         O  0.28903698  0.02919269  0.95469624    -0.73700
O18         O  0.21597639  0.02975490  0.04262323    -0.73700
O19         O  0.28862201  0.02926488  0.04235542    -0.73800
O20         O  0.21600977  0.03006971  0.95499996    -0.73800
O21         O  0.21702646  0.46820752  0.95720547    -0.73800
O22         O  0.28871449  0.46998632  0.04616209    -0.73800
O23         O  0.21577752  0.47100951  0.04441695    -0.73700
O24         O  0.29005780  0.46689468  0.95839431    -0.73800
Ni25       Ni  0.25239195  0.03179678  0.99858439     1.25400
Ni26       Ni  0.25296536  0.46676411  0.00164061     1.25400
C27         C  0.30225358  0.49782592  0.94313125     0.88500
C28         C  0.20301767  0.50316436  0.05676922     0.88400
C29         C  0.30052420  0.50190350  0.05802478     0.88400
C30         C  0.20390288  0.49957902  0.94211386     0.88600
C31         C  0.14172893  0.49622958  0.85737009     0.30500
C32         C  0.12953552  0.49381406  0.81443382    -0.35900
C33         C  0.09221646  0.49346492  0.80908174     0.16500
C34         C  0.06855520  0.49545580  0.84347840     0.22300
C35         C  0.08068485  0.49782820  0.88632803    -0.34000
C36         C  0.11791025  0.49816099  0.89172247     0.16400
O37         O  0.17546181  0.49673993  0.87011221    -0.26000
C38         C  0.17296796  0.49909392  0.91309825     0.06200
C39         C  0.13794261  0.99805238  0.92864880    -0.30900
O40         O  0.03482810  0.00025265  0.83104382    -0.22700
C41         C  0.03656690  0.00155554  0.78783563    -0.02700
C42         C  0.07185281  0.49210439  0.77262197    -0.17100
H43         H  0.14782250  0.49241705  0.78713465     0.20900
H44         H  0.06237765  0.99774410  0.91377499     0.19200
H45         H  0.12880448  0.99634658  0.96198407     0.19200
H46         H  0.08103394  0.49094092  0.73928497     0.15000
C47         C  0.37533398  0.01636259  0.87375896     0.30500
C48         C  0.40336740  0.03790289  0.85733695    -0.35900
C49         C  0.42793002  0.01887034  0.83013755     0.16500
C50         C  0.42480033  0.98141029  0.81917121     0.22300
C51         C  0.39689133  0.95974334  0.83582963    -0.34000
C52         C  0.37258973  0.97863939  0.86358966     0.16400
O53         O  0.35018552  0.02817266  0.90098779    -0.26000
C54         C  0.33284238  0.49664323  0.91295689     0.06200
C55         C  0.34630334  0.46411143  0.89277708    -0.30900
O56         O  0.45188777  0.46622083  0.79713371    -0.22700
C57         C  0.47069165  0.99962750  0.78689831    -0.02700
C58         C  0.45797152  0.03106569  0.80989657    -0.17100
H59         H  0.40610885  0.06732248  0.86567932     0.20900
H60         H  0.39732882  0.42690426  0.83610847     0.19200
H61         H  0.33631903  0.43572261  0.89479043     0.19200
H62         H  0.46906063  0.05896519  0.81089837     0.15000
C63         C  0.08122732  0.01624141  0.17789512     0.30500
C64         C  0.11063958  0.03648590  0.16296840    -0.35900
C65         C  0.13354301  0.01758166  0.13365974     0.16500
C66         C  0.12812949  0.98107653  0.12029515     0.22300
C67         C  0.09856657  0.96089443  0.13507793    -0.34000
C68         C  0.07546919  0.97997526  0.16409790     0.16400
O69         O  0.05663811  0.02843545  0.20560023    -0.26000
C70         C  0.03461559  0.99966427  0.20982296     0.06200
C71         C  0.04671010  0.47319639  0.18826054    -0.30900
O72         O  0.15367785  0.47387257  0.09577994    -0.22700
C73         C  0.17311653  0.50408881  0.08780069    -0.02700
C74         C  0.16335136  0.02932451  0.11247547    -0.17100
H75         H  0.11525504  0.06506543  0.17335344     0.20900
H76         H  0.09748305  0.43576428  0.13202013     0.19200
H77         H  0.03573513  0.44523064  0.18841344     0.19200
H78         H  0.17550110  0.05666822  0.11415134     0.15000
C79         C  0.42253601  0.01675479  0.17833675     0.30500
C80         C  0.39337422  0.03768041  0.16073853    -0.35900
C81         C  0.37108913  0.01802707  0.13284894     0.16500
C82         C  0.37687202  0.98028394  0.12316751     0.22300
C83         C  0.39290300  0.46337743  0.16007808    -0.34000
C84         C  0.42866447  0.97925399  0.16805035     0.16400
O85         O  0.44679444  0.02945449  0.20507636    -0.26000
C86         C  0.46898335  0.99973014  0.21221927     0.06200
C87         C  0.44793019  0.47036621  0.20536516    -0.30900
O88         O  0.34248652  0.47241891  0.11097482    -0.22700
C89         C  0.32988076  0.50295426  0.08960059    -0.02700
C90         C  0.34170971  0.02997213  0.10986244    -0.17100
H91         H  0.38852736  0.06728871  0.16805447     0.20900
H92         H  0.38923952  0.43349040  0.16604183     0.18400
H93         H  0.45265124  0.44171727  0.21730365     0.19200
H94         H  0.32947599  0.05814658  0.10856400     0.15000
C95         C  0.01527498  0.37782504  0.36787833     0.30500
C96         C  0.03675765  0.40516183  0.34840357    -0.35900
C97         C  0.01950282  0.42976092  0.31857044     0.16500
C98         C  0.48574061  0.42966118  0.31589523     0.22300
C99         C  0.46435337  0.40824061  0.34343273    -0.34000
C100        C  0.48173154  0.37788227  0.36476279     0.16400
O101        O  0.02561155  0.35238633  0.39724870    -0.26000
C102        C  0.99590644  0.33401760  0.40628627     0.06200
C103        C  0.46890891  0.35277189  0.39396012    -0.30900
O104        O  0.47481840  0.45944842  0.29323537    -0.22700
C105        C  0.00227417  0.47273552  0.27144671    -0.02700
C106        C  0.03202709  0.45931888  0.29490096    -0.17100
H107        H  0.06481714  0.40731911  0.35625770     0.20900
H108        H  0.43614824  0.41495305  0.34811222     0.19200
H109        H  0.44184459  0.35120351  0.40637838     0.19200
H110        H  0.05895977  0.46968033  0.29432078     0.15000
C111        C  0.48410094  0.08357257  0.30401207     0.30500
C112        C  0.46250571  0.11105211  0.32495941    -0.35900
C113        C  0.47984632  0.13348583  0.35518485     0.16500
C114        C  0.01438458  0.12696687  0.36650026     0.22300
C115        C  0.03587241  0.09858935  0.34714279    -0.34000
C116        C  0.01888328  0.07617544  0.31670855     0.16400
O117        O  0.47310492  0.05790325  0.27675668    -0.26000
C118        C  0.00229365  0.03551552  0.26885583     0.06200
C119        C  0.03155329  0.04622055  0.29340933    -0.30900
O120        O  0.02472139  0.15098100  0.39599526    -0.22700
C121        C  0.99513007  0.17137399  0.40491670    -0.02700
C122        C  0.46669670  0.16071291  0.38238993    -0.17100
H123        H  0.43400728  0.11395577  0.31908970     0.20900
H124        H  0.06382193  0.09413516  0.35544030     0.19200
H125        H  0.05820033  0.03332407  0.29442007     0.19200
H126        H  0.43928653  0.17120619  0.38551192     0.15000
C127        C  0.48478252  0.42823292  0.67982145     0.30500
C128        C  0.46508264  0.41300094  0.64588861    -0.35900
C129        C  0.48022985  0.38055603  0.62645127     0.16500
C130        C  0.00853265  0.36157003  0.64154648     0.22300
C131        C  0.02808069  0.37621745  0.67595092    -0.34000
C132        C  0.01352235  0.40915207  0.69490653     0.16400
O133        O  0.47602280  0.45889997  0.70179613    -0.26000
C134        C  0.00119808  0.46118408  0.72979345     0.06200
C135        C  0.02609700  0.43090865  0.72726063    -0.30900
O136        O  0.01801964  0.33208158  0.61787622    -0.22700
C137        C  0.99146439  0.32966555  0.58950212    -0.02700
C138        C  0.46832572  0.35909336  0.59336554    -0.17100
H139        H  0.43981838  0.42568616  0.63524446     0.20900
H140        H  0.05323386  0.36327980  0.68660597     0.19200
H141        H  0.05025661  0.42558244  0.74582580     0.19200
H142        H  0.44383749  0.36305421  0.57497377     0.15000
C143        C  0.00844504  0.13627325  0.63963223     0.30500
C144        C  0.02850729  0.11932844  0.67330188    -0.35900
C145        C  0.01291111  0.08863745  0.69438500     0.16500
C146        C  0.48122177  0.07416624  0.68369686     0.22300
C147        C  0.45951293  0.09431032  0.65366230    -0.34000
C148        C  0.47535448  0.12508356  0.63268992     0.16400
O149        O  0.01857584  0.16436773  0.61453385    -0.26000
C150        C  0.99101604  0.17043907  0.58796406     0.06200
C151        C  0.46277885  0.14911663  0.60091286    -0.30900
O152        O  0.47280527  0.04326470  0.70533005    -0.22700
C153        C  0.00028320  0.03756267  0.73056852    -0.02700
C154        C  0.02597697  0.06526699  0.72616204    -0.17100
H155        H  0.05480194  0.12882664  0.68176441     0.20900
H156        H  0.43257111  0.08603928  0.64641186     0.19200
H157        H  0.43677938  0.14960043  0.58550916     0.19200
H158        H  0.05125312  0.06777943  0.74256198     0.15000
O159        O  0.02781267  0.71234049  0.46009424    -0.73700
O160        O  0.02622706  0.78725861  0.54924668    -0.73700
O161        O  0.02511507  0.71090402  0.54817236    -0.73800
O162        O  0.02911909  0.78890629  0.46121520    -0.73800
O163        O  0.46716495  0.78942560  0.45610259    -0.73800
O164        O  0.46231038  0.71195026  0.54375390    -0.73800
O165        O  0.46307398  0.78897039  0.54393337    -0.73700
O166        O  0.46615785  0.71330127  0.45581666    -0.73800
Ni167      Ni  0.02921272  0.74971763  0.50480337     1.25400
Ni168      Ni  0.46254096  0.75100066  0.49984088     1.25400
C169        C  0.49644032  0.69956770  0.44295915     0.88500
C170        C  0.49240247  0.79965134  0.56059699     0.88400
C171        C  0.99469661  0.69921724  0.56085643     0.88400
C172        C  0.99982592  0.80279497  0.44546756     0.88600
C173        C  0.00188752  0.50656249  0.24044563    -0.01800
C174        C  0.00308513  0.49545096  0.75921921    -0.01800
O175        O  0.28899015  0.53003350  0.95474437    -0.73700
O176        O  0.21521359  0.53417418  0.04166320    -0.73700
O177        O  0.28794035  0.53309137  0.04185662    -0.73800
O178        O  0.21572948  0.53140083  0.95408463    -0.73800
O179        O  0.21684106  0.96684302  0.95611900    -0.73800
O180        O  0.29087514  0.96609612  0.04240300    -0.73800
O181        O  0.21743313  0.96656927  0.04335578    -0.73700
O182        O  0.28975344  0.96603131  0.95449844    -0.73800
Ni183      Ni  0.25192347  0.53441960  0.99787281     1.25400
Ni184      Ni  0.25384168  0.96410513  0.99916095     1.25400
C185        C  0.30166269  0.99753640  0.94049826     0.88500
C186        C  0.20419444  0.99822335  0.05676228     0.88400
C187        C  0.30210882  0.99766004  0.05625723     0.88400
C188        C  0.20383979  0.99867283  0.94222208     0.88600
C189        C  0.14156936  0.00146290  0.85756711     0.30500
C190        C  0.12935816  0.00276505  0.81452175    -0.35900
C191        C  0.09210437  0.00201157  0.80909150     0.16500
C192        C  0.06849780  0.00051733  0.84352487     0.22300
C193        C  0.08064895  0.99918401  0.88650188    -0.34000
C194        C  0.11784606  0.99956032  0.89196795     0.16400
O195        O  0.17527590  0.00144138  0.87033932    -0.26000
C196        C  0.17287327  0.99927372  0.91336953     0.06200
C197        C  0.13794350  0.50010209  0.92832019    -0.30900
O198        O  0.03483236  0.49563625  0.83105593    -0.22700
C199        C  0.03655216  0.49388196  0.78789667    -0.02700
C200        C  0.07180775  0.00235068  0.77254087    -0.17100
H201        H  0.14759876  0.00403444  0.78720870     0.20900
H202        H  0.06235209  0.49950842  0.91356958     0.19200
H203        H  0.12870432  0.50171066  0.96161358     0.19200
H204        H  0.08099391  0.00324023  0.73918938     0.15000
C205        C  0.37741696  0.51442036  0.87818025     0.30500
C206        C  0.40492456  0.53582073  0.86034616    -0.35900
C207        C  0.42929377  0.51628287  0.83341701     0.16500
C208        C  0.42668077  0.47838184  0.82418361     0.22300
C209        C  0.39948721  0.45675504  0.84267182    -0.34000
C210        C  0.37519659  0.47625948  0.86994889     0.16400
O211        O  0.35172800  0.52708775  0.90413501    -0.26000
C212        C  0.33118013  0.99758690  0.90871767     0.06200
C213        C  0.34388947  0.96587946  0.88632200    -0.30900
O214        O  0.45052247  0.96948834  0.79278438    -0.22700
C215        C  0.47106579  0.49674162  0.78906533    -0.02700
C216        C  0.45836591  0.52854688  0.81140857    -0.17100
H217        H  0.40711826  0.56566659  0.86692391     0.20900
H218        H  0.39452549  0.93014699  0.82806423     0.19200
H219        H  0.33390824  0.93746029  0.88740512     0.19200
H220        H  0.46887657  0.55674206  0.81090550     0.15000
C221        C  0.08004864  0.52245515  0.17720314     0.30500
C222        C  0.10810675  0.54355961  0.16010564    -0.35900
C223        C  0.13198932  0.52407139  0.13247662     0.16500
C224        C  0.12867786  0.48631010  0.12278060     0.22300
C225        C  0.10055351  0.46526868  0.13980215    -0.34000
C226        C  0.07647480  0.48487925  0.16704374     0.16400
O227        O  0.05470869  0.53502004  0.20361224    -0.26000
C228        C  0.03446484  0.50515034  0.21066474     0.06200
C229        C  0.04500712  0.96881879  0.18432069    -0.30900
O230        O  0.15277742  0.96903060  0.09246683    -0.22700
C231        C  0.17409101  0.99831058  0.08771156    -0.02700
C232        C  0.16087945  0.53618496  0.10971373    -0.17100
H233        H  0.11093860  0.57316527  0.16756162     0.20900
H234        H  0.09380852  0.93239374  0.12452191     0.19200
H235        H  0.03240848  0.94177898  0.18194309     0.19200
H236        H  0.17142704  0.56435824  0.10852668     0.15000
C237        C  0.42667422  0.52065245  0.17083981     0.30500
C238        C  0.40358972  0.54227152  0.14384081    -0.35900
C239        C  0.37514691  0.52300919  0.12559115     0.16500
C240        C  0.36989139  0.48496428  0.13293554     0.22300
C241        C  0.40621801  0.95947681  0.14048864    -0.34000
C242        C  0.42117492  0.48276567  0.17857493     0.16400
O243        O  0.45517435  0.53281146  0.19096765    -0.26000
C244        C  0.46795679  0.50247891  0.21267138     0.06200
C245        C  0.45903091  0.96785977  0.18931929    -0.30900
O246        O  0.35291370  0.96771877  0.09589887    -0.22700
C247        C  0.33162448  0.99788600  0.08779538    -0.02700
C248        C  0.34906682  0.53521839  0.09763632    -0.17100
H249        H  0.40766186  0.57198917  0.13725694     0.20900
H250        H  0.41137356  0.93000718  0.13272684     0.18400
H251        H  0.47207342  0.94008794  0.18890402     0.19200
H252        H  0.34512009  0.56328831  0.08364545     0.15000
C253        C  0.01997157  0.87297298  0.36883039     0.30500
C254        C  0.04132380  0.89854026  0.34601258    -0.35900
C255        C  0.02306888  0.92344465  0.31728018     0.16500
C256        C  0.48628710  0.92107561  0.30879788     0.22300
C257        C  0.46598731  0.89221073  0.32693974    -0.34000
C258        C  0.48311326  0.86959970  0.35869776     0.16400
O259        O  0.03095052  0.84807420  0.39854720    -0.26000
C260        C  0.00090740  0.83200111  0.41144995     0.06200
C261        C  0.47053988  0.84091079  0.38354238    -0.30900
O262        O  0.47518375  0.94594970  0.27929587    -0.22700
C263        C  0.00411677  0.96665996  0.27130380    -0.02700
C264        C  0.03503318  0.95203320  0.29155702    -0.17100
H265        H  0.06995526  0.89939383  0.35086066     0.20900
H266        H  0.43853969  0.88808102  0.31746760     0.19200
H267        H  0.44404714  0.82938193  0.38320518     0.19200
H268        H  0.06222604  0.96128769  0.28794629     0.15000
C269        C  0.48416130  0.58457042  0.30543377     0.30500
C270        C  0.46352883  0.61375251  0.32475470    -0.35900
C271        C  0.48064955  0.63426996  0.35701644     0.16500
C272        C  0.01734296  0.63190081  0.36701197     0.22300
C273        C  0.03821126  0.60386290  0.34623680    -0.34000
C274        C  0.02044806  0.58232003  0.31565757     0.16400
O275        O  0.47331060  0.56091394  0.27564754    -0.26000
C276        C  0.00239423  0.54181058  0.26851649     0.06200
C277        C  0.03223337  0.55217619  0.29222327    -0.30900
O278        O  0.02814326  0.65413954  0.39807954    -0.22700
C279        C  0.99875765  0.67412070  0.40884744    -0.02700
C280        C  0.46819517  0.66284754  0.38279314    -0.17100
H281        H  0.43590711  0.61962778  0.31581782     0.20900
H282        H  0.06613416  0.59856785  0.35415204     0.19200
H283        H  0.05871381  0.53887141  0.29272885     0.19200
H284        H  0.44162857  0.67598399  0.38315945     0.15000
C285        C  0.48308233  0.92897154  0.68097595     0.30500
C286        C  0.46279667  0.91271664  0.64820221    -0.35900
C287        C  0.47683393  0.87873436  0.63106982     0.16500
C288        C  0.01309081  0.86671533  0.64361550     0.22300
C289        C  0.03273110  0.88339668  0.67662384    -0.34000
C290        C  0.01738101  0.91643156  0.69449908     0.16400
O291        O  0.47551315  0.96111666  0.70071276    -0.26000
C292        C  0.00298334  0.96809799  0.72910887     0.06200
C293        C  0.02920824  0.93910008  0.72641121    -0.30900
O294        O  0.02282694  0.83625700  0.62167275    -0.22700
C295        C  0.99575789  0.83160684  0.59451986    -0.02700
C296        C  0.46494525  0.85679533  0.59836123    -0.17100
H297        H  0.43813140  0.92596137  0.63640253     0.20900
H298        H  0.05828660  0.87156190  0.68744818     0.19200
H299        H  0.05348010  0.93486139  0.74505620     0.19200
H300        H  0.44118280  0.86134342  0.57875270     0.15000
C301        C  0.01149757  0.63186900  0.64277112     0.30500
C302        C  0.03188009  0.61269186  0.67463830    -0.35900
C303        C  0.01584371  0.58166310  0.69450139     0.16500
C304        C  0.48102119  0.57076969  0.68501091     0.22300
C305        C  0.45998019  0.58945799  0.65322030    -0.34000
C306        C  0.47482178  0.62157668  0.63399182     0.16400
O307        O  0.02188335  0.66077138  0.61907412    -0.26000
C308        C  0.99390556  0.66899623  0.59379163     0.06200
C309        C  0.46268807  0.64468400  0.60111645    -0.30900
O310        O  0.47345632  0.53901091  0.70536474    -0.22700
C311        C  0.00177133  0.53062052  0.72991955    -0.02700
C312        C  0.02861648  0.55703787  0.72523530    -0.17100
H313        H  0.05861378  0.62101136  0.68286975     0.20900
H314        H  0.43435751  0.57908821  0.64334071     0.19200
H315        H  0.43792392  0.64309219  0.58321758     0.19200
H316        H  0.05416879  0.55825141  0.74131514     0.15000
O317        O  0.52557432  0.21038299  0.45566032    -0.73700
O318        O  0.52506259  0.28740040  0.54206152    -0.73700
O319        O  0.52316023  0.21129622  0.54363098    -0.73800
O320        O  0.52733876  0.28677692  0.45394009    -0.73800
O321        O  0.96448325  0.29153482  0.45158596    -0.73800
O322        O  0.96185390  0.21335727  0.53856048    -0.73800
O323        O  0.96221846  0.29038717  0.53935585    -0.73700
O324        O  0.96405691  0.21503705  0.45081166    -0.73800
Ni325      Ni  0.52741730  0.24881182  0.49889035     1.25400
Ni326      Ni  0.96099962  0.25267066  0.49502751     1.25400
C327        C  0.99424628  0.20123601  0.43768577     0.88500
C328        C  0.99179582  0.30112134  0.55533658     0.88400
C329        C  0.49270200  0.20030007  0.55705240     0.88400
C330        C  0.49799555  0.30108288  0.43880680     0.88600
C331        C  0.50227527  0.00099375  0.24084854    -0.01800
C332        C  0.50383472  0.99921105  0.75797767    -0.01800
O333        O  0.78900888  0.02624691  0.95631784    -0.73700
O334        O  0.71495177  0.02731031  0.04254323    -0.73700
O335        O  0.78743601  0.02758943  0.04373163    -0.73800
O336        O  0.71596933  0.02640065  0.95501124    -0.73800
O337        O  0.71625630  0.47061588  0.95848280    -0.73800
O338        O  0.78997005  0.47152831  0.04463018    -0.73800
O339        O  0.71681513  0.47269127  0.04558499    -0.73700
O340        O  0.78900632  0.46928066  0.95694739    -0.73800
Ni341      Ni  0.75178628  0.02909803  0.99924275     1.25400
Ni342      Ni  0.75309511  0.46876758  0.00155289     1.25400
C343        C  0.80127289  0.50034707  0.94219266     0.88500
C344        C  0.70365577  0.50471570  0.05789658     0.88400
C345        C  0.80130498  0.50331789  0.05754973     0.88400
C346        C  0.70350304  0.50211147  0.94339847     0.88600
C347        C  0.64189903  0.49974095  0.85836157     0.30500
C348        C  0.62997691  0.49821086  0.81527031    -0.35900
C349        C  0.59278449  0.49656339  0.80970558     0.16500
C350        C  0.56903023  0.49660389  0.84406514     0.22300
C351        C  0.58089529  0.49799422  0.88705722    -0.34000
C352        C  0.61798317  0.49954111  0.89266236     0.16400
O353        O  0.67547737  0.50113128  0.87131740    -0.26000
C354        C  0.67274744  0.50183729  0.91434979     0.06200
C355        C  0.63826862  0.99568018  0.92819615    -0.30900
O356        O  0.53544674  0.99844430  0.82992757    -0.22700
C357        C  0.53728839  0.99804135  0.78671741    -0.02700
C358        C  0.57261269  0.49545990  0.77309243    -0.17100
H359        H  0.64835965  0.49837044  0.78804206     0.20900
H360        H  0.56271513  0.99796360  0.91279884     0.19200
H361        H  0.62888395  0.99589174  0.96148277     0.19200
H362        H  0.58186777  0.49557435  0.73975616     0.15000
C363        C  0.87709431  0.01405444  0.87905522     0.30500
C364        C  0.90530613  0.03588209  0.86384497    -0.35900
C365        C  0.92885706  0.01819193  0.83440693     0.16500
C366        C  0.92480360  0.98164504  0.82047808     0.22300
C367        C  0.89679161  0.95955523  0.83615145    -0.34000
C368        C  0.87335115  0.97716937  0.86599782     0.16400
O369        O  0.85219051  0.02505715  0.90692808    -0.26000
C370        C  0.83102354  0.49935451  0.91085948     0.06200
C371        C  0.84178617  0.46774534  0.88701455    -0.30900
O372        O  0.94809698  0.46785491  0.79268795    -0.22700
C373        C  0.97017828  0.00118036  0.78821822    -0.02700
C374        C  0.95847245  0.03122402  0.81408491    -0.17100
H375        H  0.90869647  0.06465524  0.87433307     0.20900
H376        H  0.88992202  0.43106503  0.82652689     0.19200
H377        H  0.82986959  0.44023442  0.88648762     0.19200
H378        H  0.97010248  0.05872636  0.81711331     0.15000
C379        C  0.57997600  0.01574598  0.17653229     0.30500
C380        C  0.60743116  0.03684184  0.15817823    -0.35900
C381        C  0.63193266  0.01677027  0.13199281     0.16500
C382        C  0.62980644  0.97846210  0.12458505     0.22300
C383        C  0.60224139  0.95732818  0.14296586    -0.34000
C384        C  0.57751528  0.97754469  0.16892083     0.16400
O385        O  0.55426047  0.02894828  0.20197225    -0.26000
C386        C  0.53483722  0.99889466  0.21108386     0.06200
C387        C  0.54493582  0.47328631  0.18415294    -0.30900
O388        O  0.65353168  0.47520844  0.09492764    -0.22700
C389        C  0.67344708  0.50530550  0.08851503    -0.02700
C390        C  0.66041937  0.02886649  0.10868244    -0.17100
H391        H  0.60937962  0.06690025  0.16366915     0.20900
H392        H  0.59609694  0.43707551  0.12768147     0.19200
H393        H  0.53352138  0.44555818  0.18267212     0.19200
H394        H  0.66995475  0.05740050  0.10580591     0.15000
C395        C  0.92283027  0.01699872  0.17792514     0.30500
C396        C  0.89515799  0.03851873  0.15785092    -0.35900
C397        C  0.87076031  0.01818726  0.13342495     0.16500
C398        C  0.87319884  0.97932800  0.12933542     0.22300
C399        C  0.90456015  0.46517065  0.14253091    -0.34000
C400        C  0.92548396  0.97827008  0.17324538     0.16400
O401        O  0.94887505  0.03011739  0.20178254    -0.26000
C402        C  0.96859063  0.99936467  0.21277999     0.06200
C403        C  0.95791382  0.47365516  0.19007571    -0.30900
O404        O  0.85124271  0.47340586  0.09826066    -0.22700
C405        C  0.83076249  0.50387915  0.08892237    -0.02700
C406        C  0.84249725  0.03027898  0.10853022    -0.17100
H407        H  0.89311698  0.06902849  0.16051489     0.20900
H408        H  0.90888711  0.43532468  0.13608199     0.18400
H409        H  0.97017113  0.44549381  0.19072687     0.19200
H410        H  0.83296737  0.05914168  0.10271322     0.15000
C411        C  0.51784077  0.36935300  0.35997450     0.30500
C412        C  0.53922686  0.39057036  0.33177086    -0.35900
C413        C  0.52160266  0.42076498  0.30982383     0.16500
C414        C  0.98373010  0.42741826  0.30844877     0.22300
C415        C  0.96225832  0.40015211  0.32788016    -0.34000
C416        C  0.97940079  0.37576582  0.35790718     0.16400
O417        O  0.52864492  0.34071394  0.38502569    -0.26000
C418        C  0.49888383  0.33084527  0.40554970     0.06200
C419        C  0.96631675  0.34734245  0.38282369    -0.30900
O420        O  0.97301215  0.45336981  0.28002659    -0.22700
C421        C  0.50362691  0.46938826  0.27090234    -0.02700
C422        C  0.53384724  0.44654566  0.28057978    -0.17100
H423        H  0.56752801  0.38417842  0.32748298     0.20900
H424        H  0.93409256  0.39832753  0.32040655     0.19200
H425        H  0.93914027  0.33764182  0.38418339     0.19200
H426        H  0.56090991  0.44882577  0.26843432     0.15000
C427        C  0.98330966  0.08136078  0.30577939     0.30500
C428        C  0.96166840  0.10949380  0.32551110    -0.35900
C429        C  0.97859762  0.13182844  0.35617548     0.16500
C430        C  0.51602845  0.12953254  0.36370898     0.22300
C431        C  0.53761969  0.10229362  0.34254093    -0.34000
C432        C  0.52015922  0.07955624  0.31285477     0.16400
O433        O  0.97294117  0.05680282  0.27684813    -0.26000
C434        C  0.50254296  0.03711728  0.26763565     0.06200
C435        C  0.53252964  0.04937242  0.28977889    -0.30900
O436        O  0.52646764  0.15251635  0.39421534    -0.22700
C437        C  0.49655419  0.17129785  0.40564699    -0.02700
C438        C  0.96554997  0.16064560  0.38123066    -0.17100
H439        H  0.93357150  0.11350592  0.31773343     0.20900
H440        H  0.56583962  0.09834017  0.34968195     0.19200
H441        H  0.55945526  0.03717230  0.28973362     0.19200
H442        H  0.93843289  0.17232395  0.38242947     0.15000
C443        C  0.98208377  0.42656780  0.68083977     0.30500
C444        C  0.96214385  0.41153851  0.64699627    -0.35900
C445        C  0.97651843  0.37842454  0.62824446     0.16500
C446        C  0.51279566  0.36457609  0.63908953     0.22300
C447        C  0.53228391  0.37960767  0.67333948    -0.34000
C448        C  0.51688388  0.41178143  0.69310834     0.16400
O449        O  0.97437842  0.45808074  0.70172706    -0.26000
C450        C  0.50282833  0.46245942  0.72977825     0.06200
C451        C  0.52881907  0.43330915  0.72606425    -0.30900
O452        O  0.52240863  0.33496255  0.61565056    -0.22700
C453        C  0.49539288  0.33158068  0.58809323    -0.02700
C454        C  0.96475804  0.35758374  0.59455734    -0.17100
H455        H  0.93749328  0.42508831  0.63558815     0.20900
H456        H  0.55777468  0.36724092  0.68364631     0.19200
H457        H  0.55326939  0.42860192  0.74424751     0.19200
H458        H  0.94089057  0.36253642  0.57524004     0.15000
C459        C  0.51018614  0.13494330  0.64052543     0.30500
C460        C  0.53140823  0.11549934  0.67131020    -0.35900
C461        C  0.51545225  0.08511299  0.69248659     0.16500
C462        C  0.98013819  0.07516515  0.68288045     0.22300
C463        C  0.95954519  0.09278946  0.64992590    -0.34000
C464        C  0.97496775  0.12381654  0.62904434     0.16400
O465        O  0.52055637  0.16283756  0.61533149    -0.26000
C466        C  0.49190520  0.17139165  0.59136738     0.06200
C467        C  0.96297882  0.14623191  0.59551960    -0.30900
O468        O  0.97223308  0.04414746  0.70456871    -0.22700
C469        C  0.50192770  0.03441540  0.72879101    -0.02700
C470        C  0.52906093  0.06023494  0.72237743    -0.17100
H471        H  0.55875931  0.12297075  0.67755060     0.20900
H472        H  0.93378188  0.08247288  0.64051752     0.19200
H473        H  0.93793328  0.14481154  0.57817224     0.19200
H474        H  0.55537010  0.06089671  0.73660855     0.15000
O475        O  0.52582629  0.71033173  0.45946009    -0.73700
O476        O  0.52271925  0.78563088  0.54822593    -0.73700
O477        O  0.52201211  0.70966117  0.54748317    -0.73800
O478        O  0.52683259  0.78725337  0.46023421    -0.73800
O479        O  0.96938012  0.79159277  0.45872793    -0.73800
O480        O  0.96538705  0.71337814  0.54534885    -0.73800
O481        O  0.96652613  0.79057637  0.54629950    -0.73700
O482        O  0.96810411  0.71562282  0.45745610    -0.73800
Ni483      Ni  0.52648460  0.74810405  0.50391175     1.25400
Ni484      Ni  0.96521901  0.75287536  0.50201185     1.25400
C485        C  0.99820061  0.70203782  0.44380206     0.88500
C486        C  0.99611834  0.80156812  0.56196260     0.88400
C487        C  0.49149642  0.69829038  0.56014173     0.88400
C488        C  0.49775311  0.80094339  0.44369785     0.88600
C489        C  0.50181321  0.50335010  0.24016307    -0.01800
C490        C  0.50392107  0.49642732  0.75976041    -0.01800
O491        O  0.78885308  0.53244760  0.95531711    -0.73700
O492        O  0.71544401  0.53587047  0.04271578    -0.73700
O493        O  0.78804754  0.53471825  0.04276010    -0.73800
O494        O  0.71574550  0.53381016  0.95512262    -0.73800
O495        O  0.71729565  0.96319129  0.95720627    -0.73800
O496        O  0.79010900  0.96442245  0.04509757    -0.73800
O497        O  0.71698523  0.96412358  0.04467546    -0.73700
O498        O  0.79030188  0.96305690  0.95707267    -0.73800
Ni499      Ni  0.75200944  0.53646677  0.99880402     1.25400
Ni500      Ni  0.75379639  0.96140324  0.00107445     1.25400
C501        C  0.80217810  0.99454800  0.94299359     0.88500
C502        C  0.70351074  0.99588533  0.05738114     0.88400
C503        C  0.80085855  0.99630376  0.05863366     0.88400
C504        C  0.70418257  0.99473118  0.94251427     0.88600
C505        C  0.64232099  0.99594250  0.85707127     0.30500
C506        C  0.63026049  0.99613674  0.81390220    -0.35900
C507        C  0.59292719  0.99681136  0.80823957     0.16500
C508        C  0.56914164  0.99767212  0.84255136     0.22300
C509        C  0.58114301  0.99748989  0.88560850    -0.34000
C510        C  0.61836813  0.99644714  0.89132505     0.16400
O511        O  0.67602076  0.99506768  0.87013283    -0.26000
C512        C  0.67336597  0.99479624  0.91323338     0.06200
C513        C  0.63777186  0.50087448  0.92945922    -0.30900
O514        O  0.53543189  0.49590288  0.83150655    -0.22700
C515        C  0.53732324  0.49546903  0.78832208    -0.02700
C516        C  0.57266094  0.99669077  0.77160331    -0.17100
H517        H  0.64865352  0.99560353  0.78667978     0.20900
H518        H  0.56246504  0.49803982  0.91424690     0.19200
H519        H  0.62842761  0.50083382  0.96276631     0.19200
H520        H  0.58197437  0.99592767  0.73830218     0.15000
C521        C  0.87645021  0.51617085  0.87709167     0.30500
C522        C  0.90570198  0.53632197  0.86158553    -0.35900
C523        C  0.92881118  0.51688752  0.83301254     0.16500
C524        C  0.92332315  0.48031120  0.82007444     0.22300
C525        C  0.89422887  0.45996631  0.83592779    -0.34000
C526        C  0.87130809  0.47926986  0.86496790     0.16400
O527        O  0.85198643  0.52868524  0.90478440    -0.26000
C528        C  0.83231763  0.99479164  0.91223811     0.06200
C529        C  0.84426469  0.96400952  0.88772102    -0.30900
O530        O  0.94971021  0.97105940  0.79227744    -0.22700
C531        C  0.96999101  0.49675570  0.78816146    -0.02700
C532        C  0.95929869  0.52791708  0.81291040    -0.17100
H533        H  0.91028229  0.56505511  0.87140641     0.20900
H534        H  0.89355856  0.93069575  0.82587645     0.19200
H535        H  0.83323335  0.93610028  0.88630552     0.19200
H536        H  0.97208602  0.55486591  0.81527908     0.15000
C537        C  0.57897355  0.52239753  0.17626106     0.30500
C538        C  0.60739882  0.54372419  0.16041794    -0.35900
C539        C  0.63147824  0.52480111  0.13244421     0.16500
C540        C  0.62802149  0.48735837  0.12137933     0.22300
C541        C  0.59927966  0.46630702  0.13659659    -0.34000
C542        C  0.57493517  0.48540048  0.16392131     0.16400
O543        O  0.55404701  0.53392648  0.20389975    -0.26000
C544        C  0.53357828  0.50397488  0.20922494     0.06200
C545        C  0.54801277  0.96610620  0.19093604    -0.30900
O546        O  0.65524709  0.96570788  0.09824655    -0.22700
C547        C  0.67372176  0.99632284  0.08860279    -0.02700
C548        C  0.66096870  0.53707584  0.11092013    -0.17100
H549        H  0.61056974  0.57294462  0.16938014     0.20900
H550        H  0.60002885  0.92735671  0.13710220     0.19200
H551        H  0.53779381  0.93783322  0.19306259     0.19200
H552        H  0.67177277  0.56513779  0.11085904     0.15000
C553        C  0.92263695  0.52320043  0.17755143     0.30500
C554        C  0.89391126  0.54435517  0.15932774    -0.35900
C555        C  0.87092884  0.52440682  0.13262263     0.16500
C556        C  0.87564642  0.48619858  0.12468558     0.22300
C557        C  0.90087831  0.95788099  0.14934446    -0.34000
C558        C  0.92773335  0.48524348  0.16877202     0.16400
O559        O  0.94731958  0.53598405  0.20366328    -0.26000
C560        C  0.96870286  0.50582432  0.21176956     0.06200
C561        C  0.95543619  0.96642421  0.19495185    -0.30900
O562        O  0.84836621  0.96627666  0.10362908    -0.22700
C563        C  0.82980521  0.99718302  0.09090453    -0.02700
C564        C  0.84176304  0.53640779  0.10933903    -0.17100
H565        H  0.88987659  0.57430630  0.16533597     0.20900
H566        H  0.90347463  0.92747675  0.14580251     0.18400
H567        H  0.96622209  0.93772661  0.19800154     0.19200
H568        H  0.83030981  0.56486668  0.10671043     0.15000
C569        C  0.51801189  0.87460886  0.37143785     0.30500
C570        C  0.53841483  0.90347525  0.35310367    -0.35900
C571        C  0.52105712  0.92644170  0.32163395     0.16500
C572        C  0.98651135  0.92296376  0.31135808     0.22300
C573        C  0.96528732  0.89735217  0.33383366    -0.34000
C574        C  0.98340229  0.87272538  0.36263183     0.16400
O575        O  0.52823391  0.85067404  0.40254771    -0.26000
C576        C  0.49933039  0.83043964  0.40993099     0.06200
C577        C  0.97058884  0.84611394  0.39010238    -0.30900
O578        O  0.97476051  0.94916678  0.28390024    -0.22700
C579        C  0.50314709  0.96779394  0.27282718    -0.02700
C580        C  0.53246620  0.95692235  0.29861512    -0.17100
H581        H  0.56562698  0.90810351  0.36317173     0.20900
H582        H  0.93654445  0.89710212  0.32970110     0.19200
H583        H  0.94304187  0.83828327  0.39469299     0.19200
H584        H  0.55849905  0.96938601  0.29983697     0.15000
C585        C  0.98476302  0.58811075  0.30558530     0.30500
C586        C  0.96382736  0.61625526  0.32634321    -0.35900
C587        C  0.98148575  0.63755759  0.35742342     0.16500
C588        C  0.51576274  0.62693471  0.36909381     0.22300
C589        C  0.53628898  0.59771282  0.34994964    -0.34000
C590        C  0.51905433  0.57698974  0.31812947     0.16400
O591        O  0.97348202  0.56361356  0.27705260    -0.26000
C592        C  0.50168818  0.53778269  0.26925033     0.06200
C593        C  0.53074235  0.54649776  0.29519774    -0.30900
O594        O  0.52623890  0.64919080  0.40036726    -0.22700
C595        C  0.49734812  0.67087213  0.40876230    -0.02700
C596        C  0.96893097  0.66509837  0.38455448    -0.17100
H597        H  0.93559020  0.62060391  0.31954475     0.20900
H598        H  0.56361193  0.59116436  0.35969308     0.19200
H599        H  0.55655800  0.53180335  0.29732197     0.19200
H600        H  0.94185959  0.67672785  0.38705721     0.15000
C601        C  0.98518126  0.93221674  0.68059301     0.30500
C602        C  0.96531046  0.91535038  0.64789456    -0.35900
C603        C  0.98040270  0.88200320  0.63039374     0.16500
C604        C  0.50883440  0.86220595  0.64491286     0.22300
C605        C  0.52870340  0.87809411  0.67824135    -0.34000
C606        C  0.51452519  0.91189554  0.69552806     0.16400
O607        O  0.97623524  0.96353878  0.70127284    -0.26000
C608        C  0.50241476  0.96490659  0.72853988     0.06200
C609        C  0.52731360  0.93459308  0.72684560    -0.30900
O610        O  0.51821178  0.83194866  0.62247339    -0.22700
C611        C  0.49163908  0.82868925  0.59429195    -0.02700
C612        C  0.96851377  0.85911402  0.59861881    -0.17100
H613        H  0.93992230  0.92742745  0.63681850     0.20900
H614        H  0.55384465  0.86540325  0.68929596     0.19200
H615        H  0.55137052  0.92958239  0.74570185     0.19200
H616        H  0.94410402  0.86239219  0.57994815     0.15000
C617        C  0.50813856  0.63412309  0.64515022     0.30500
C618        C  0.52863902  0.61607762  0.67772350    -0.35900
C619        C  0.51370437  0.58416833  0.69700679     0.16500
C620        C  0.98232406  0.56990268  0.68350658     0.22300
C621        C  0.96151536  0.58960715  0.65221315    -0.34000
C622        C  0.97739202  0.62101734  0.63260165     0.16400
O623        O  0.51805897  0.66288140  0.62095854    -0.26000
C624        C  0.49057194  0.66925262  0.59434228     0.06200
C625        C  0.96530228  0.64537365  0.60086286    -0.30900
O626        O  0.97355340  0.53888069  0.70468116    -0.22700
C627        C  0.50163948  0.53183009  0.73097009    -0.02700
C628        C  0.52721270  0.55972938  0.72749481    -0.17100
H629        H  0.55486262  0.62558111  0.68649673     0.20900
H630        H  0.93510759  0.58073881  0.64331733     0.19200
H631        H  0.93986265  0.64546904  0.58417193     0.19200
H632        H  0.55241376  0.56197227  0.74416365     0.15000
loop_ 
_geom_bond_atom_site_label_1 
_geom_bond_atom_site_label_2 
_geom_bond_distance 
_geom_bond_site_symmetry_2 
_ccdc_geom_bond_type 
O1           Ni9   1.920       .  S
O1          C327   1.281   1_455  A
O2           Ni9   1.914       .  S
O2          C328   1.280   1_455  A
O3           Ni9   1.908       .  S
O3           C13   1.279   1_455  A
O4           Ni9   1.916       .  S
O4           C14   1.280   1_455  A
O5          Ni10   1.905       .  S
O5          C330   1.279       .  A
O6          Ni10   1.916       .  S
O6          C329   1.280       .  A
O7          Ni10   1.922       .  S
O7           C12   1.282       .  A
O8          Ni10   1.920       .  S
O8           C11   1.282       .  A
Ni9        Ni326   2.392   1_455  S
Ni10       Ni325   2.392       .  S
C11         O317   1.280       .  A
C11         C437   1.469       .  S
C12         O318   1.280       .  A
C12         C453   1.469       .  S
C13         O322   1.281       .  A
C13         C150   1.462       .  S
C14         O321   1.280       .  A
C14         C102   1.464       .  S
C15          C70   1.523   1_545  S
C15         C118   1.526       .  S
C15         C402   1.530   1_445  S
C15         C263   1.519   1_545  S
C16          C41   1.531       .  S
C16         C153   1.525       .  S
C16         C373   1.521   1_455  S
C16         C292   1.526   1_545  S
O17         Ni25   1.922       .  S
O17         C185   1.282   1_545  A
O18         Ni25   1.920   1_554  S
O18         C186   1.282   1_545  A
O19         Ni25   1.914   1_554  S
O19         C187   1.280   1_545  A
O20         Ni25   1.917       .  S
O20         C188   1.280   1_545  A
O21         Ni26   1.920   1_556  S
O21          C30   1.281       .  A
O22         Ni26   1.925       .  S
O22          C29   1.282       .  A
O23         Ni26   1.915       .  S
O23          C28   1.280       .  A
O24         Ni26   1.919   1_556  S
O24          C27   1.281       .  A
Ni25       Ni184   2.391   1_545  S
Ni26       Ni183   2.391   1_554  S
C27         O175   1.281       .  A
C27          C54   1.470       .  S
C28         O176   1.282       .  A
C28          C73   1.468       .  S
C29         O177   1.280       .  A
C29          C89   1.471       .  S
C30         O178   1.280       .  A
C30          C38   1.465       .  S
C31          C36   1.381       .  A
C31          C32   1.405       .  A
C31          O37   1.322       .  A
C32          C33   1.405       .  A
C32          H43   1.082       .  S
C33          C42   1.361       .  A
C33          C34   1.379       .  A
C34          C35   1.402       .  A
C34         O198   1.318       .  A
C35          C36   1.402       .  A
C35         H202   1.082       .  S
C36         C197   1.359       .  A
O37          C38   1.331       .  A
C38         C197   1.388       .  A
C39         C194   1.359       .  A
C39         C196   1.387       .  A
C39          H45   1.083       .  S
O40          C41   1.333       .  A
O40         C192   1.317       .  A
C41         C200   1.398       .  A
C42         C199   1.398       .  A
C42          H46   1.083       .  S
H44         C193   1.082       .  S
C47          C52   1.380   1_545  A
C47          C48   1.403       .  A
C47          O53   1.319       .  A
C48          C49   1.402       .  A
C48          H59   1.082       .  S
C49          C58   1.361       .  A
C49          C50   1.379   1_545  A
C50          C51   1.405       .  A
C50         O214   1.319       .  A
C51          C52   1.404       .  A
C51         H218   1.082       .  S
C52         C213   1.364       .  A
O53         C212   1.331   1_545  A
C54          C55   1.393       .  A
C54         O211   1.330       .  A
C55         C210   1.364       .  A
C55          H61   1.082       .  S
O56         C208   1.320       .  A
O56         C215   1.334       .  A
C57         C332   1.523       .  S
C57          C58   1.395   1_565  A
C57         O214   1.334       .  A
C58          H62   1.082       .  S
H60         C209   1.082       .  S
C63          C68   1.379   1_545  A
C63          C64   1.403       .  A
C63          O69   1.318       .  A
C64          C65   1.402       .  A
C64          H75   1.082       .  S
C65          C74   1.362       .  A
C65          C66   1.380   1_545  A
C66          C67   1.405       .  A
C66         O230   1.320       .  A
C67          C68   1.404       .  A
C67         H234   1.082       .  S
C68         C229   1.362       .  A
O69          C70   1.333   1_545  A
C70         C229   1.396       .  A
C71         C226   1.361       .  A
C71         C228   1.395       .  A
C71          H77   1.082       .  S
O72          C73   1.330       .  A
O72         C224   1.317       .  A
C73         C232   1.391       .  A
C74         C231   1.391   1_545  A
C74          H78   1.082       .  S
H76         C225   1.082       .  S
C79          C84   1.378   1_545  A
C79          C80   1.404       .  A
C79          O85   1.320       .  A
C80          C81   1.404       .  A
C80          H91   1.083       .  S
C81          C90   1.361       .  A
C81          C82   1.380   1_545  A
C82         C241   1.404       .  A
C82         O246   1.321       .  A
C83         C240   1.403       .  A
C83         C242   1.404       .  A
C83          H92   1.083       .  S
C84         C241   1.404       .  A
C84         C245   1.360       .  A
O85          C86   1.334   1_545  A
C86         C331   1.530   1_565  S
C86         C245   1.398       .  A
C87         C242   1.357       .  A
C87         C244   1.400       .  A
C87          H93   1.082       .  S
O88          C89   1.331       .  A
O88         C240   1.321       .  A
C89         C248   1.391       .  A
C90         C247   1.392   1_545  A
C90          H94   1.083       .  S
C95          C96   1.403       .  A
C95         C416   1.381   1_455  A
C95         O101   1.318       .  A
C96          C97   1.402       .  A
C96         H107   1.082       .  S
C97         C106   1.361       .  A
C97         C414   1.379   1_455  A
C98          C99   1.396       .  A
C98         C413   1.379       .  A
C98         O104   1.311       .  A
C99         C100   1.395       .  A
C99         H108   1.082       .  S
C100        C103   1.353       .  A
C100        C411   1.381       .  A
O101        C102   1.330   1_455  A
C102        C419   1.390       .  A
C103        C418   1.387       .  A
C103        H109   1.083       .  S
O104        C421   1.330       .  A
C105        C173   1.520       .  S
C105        C106   1.395       .  A
C105        O420   1.332   1_455  A
C106        H110   1.082       .  S
C111        C112   1.404       .  A
C111        C432   1.378       .  A
C111        O117   1.320       .  A
C112        C113   1.404       .  A
C112        H123   1.082       .  S
C113        C122   1.363       .  A
C113        C430   1.380       .  A
C114        C115   1.402       .  A
C114        C429   1.380   1_455  A
C114        O120   1.318       .  A
C115        C116   1.402       .  A
C115        H124   1.082       .  S
C116        C119   1.358       .  A
C116        C427   1.378   1_455  A
O117        C434   1.334       .  A
C118        C119   1.397       .  A
C118        O433   1.334   1_455  A
C119        H125   1.082       .  S
O120        C121   1.330   1_455  A
C121        C327   1.469       .  S
C121        C438   1.392       .  A
C122        C437   1.392       .  A
C122        H126   1.082       .  S
C127        C128   1.403       .  A
C127        C448   1.377       .  A
C127        O133   1.317       .  A
C128        C129   1.402       .  A
C128        H139   1.082       .  S
C129        C138   1.363       .  A
C129        C446   1.380       .  A
C130        C131   1.403       .  A
C130        C445   1.380   1_455  A
C130        O136   1.318       .  A
C131        C132   1.402       .  A
C131        H140   1.082       .  S
C132        C135   1.361       .  A
C132        C443   1.377   1_455  A
O133        C450   1.334       .  A
C134        C174   1.525       .  S
C134        C135   1.398       .  A
C134        O449   1.334   1_455  A
C135        H141   1.081       .  S
O136        C137   1.330   1_455  A
C137        C328   1.467       .  S
C137        C454   1.390       .  A
C138        C453   1.391       .  A
C138        H142   1.082       .  S
C143        C144   1.399       .  A
C143        C464   1.381   1_455  A
C143        O149   1.315       .  A
C144        C145   1.399       .  A
C144        H155   1.082       .  S
C145        C154   1.355       .  A
C145        C462   1.377   1_455  A
C146        C147   1.405       .  A
C146        C461   1.377       .  A
C146        O152   1.318       .  A
C147        C148   1.404       .  A
C147        H156   1.082       .  S
C148        C151   1.363       .  A
C148        C459   1.381       .  A
O149        C150   1.328   1_455  A
C150        C467   1.390       .  A
C151        C466   1.392       .  A
C151        H157   1.082       .  S
O152        C469   1.335       .  A
C153        C154   1.398       .  A
C153        O468   1.334   1_455  A
C154        H158   1.079       .  S
O159       Ni167   1.922       .  S
O159        C485   1.282   1_455  A
O160       Ni167   1.919       .  S
O160        C486   1.281   1_455  A
O161       Ni167   1.912       .  S
O161        C171   1.280   1_455  A
O162       Ni167   1.917       .  S
O162        C172   1.280   1_455  A
O163       Ni168   1.912       .  S
O163        C488   1.281       .  A
O164       Ni168   1.921       .  S
O164        C487   1.281       .  A
O165       Ni168   1.922       .  S
O165        C170   1.282       .  A
O166       Ni168   1.915       .  S
O166        C169   1.280       .  A
Ni167      Ni484   2.392   1_455  S
Ni168      Ni483   2.392       .  S
C169        O475   1.282       .  A
C169        C595   1.471       .  S
C170        O476   1.280       .  A
C170        C611   1.468       .  S
C171        O480   1.281       .  A
C171        C308   1.465       .  S
C172        O479   1.280       .  A
C172        C260   1.463   1_655  S
C173        C228   1.521       .  S
C173        C560   1.526   1_455  S
C173        C276   1.526       .  S
C174        C199   1.533       .  S
C174        C531   1.522   1_455  S
C174        C311   1.527       .  S
O175       Ni183   1.920       .  S
O176       Ni183   1.920   1_554  S
O177       Ni183   1.913   1_554  S
O178       Ni183   1.920       .  S
O179       Ni184   1.919       .  S
O179        C188   1.280       .  A
O180       Ni184   1.928   1_554  S
O180        C187   1.283       .  A
O181       Ni184   1.922   1_554  S
O181        C186   1.281       .  A
O182       Ni184   1.920       .  S
O182        C185   1.281       .  A
C185        C212   1.472       .  S
C186        C231   1.472       .  S
C187        C247   1.473       .  S
C188        C196   1.461       .  S
C189        C194   1.381   1_545  A
C189        C190   1.404       .  A
C189        O195   1.321       .  A
C190        C191   1.404       .  A
C190        H201   1.082       .  S
C191        C200   1.360       .  A
C191        C192   1.379       .  A
C192        C193   1.401   1_545  A
C193        C194   1.401       .  A
O195        C196   1.330   1_545  A
C197        H203   1.083       .  S
O198        C199   1.333       .  A
C200        H204   1.083       .  S
C205        C210   1.380       .  A
C205        C206   1.402       .  A
C205        O211   1.318       .  A
C206        C207   1.401       .  A
C206        H217   1.082       .  S
C207        C216   1.358       .  A
C207        C208   1.379       .  A
C208        C209   1.405       .  A
C209        C210   1.405       .  A
C212        C213   1.393       .  A
C213        H219   1.082       .  S
C215        C490   1.521       .  S
C215        C216   1.395       .  A
C216        H220   1.082       .  S
C221        C226   1.379       .  A
C221        C222   1.403       .  A
C221        O227   1.316       .  A
C222        C223   1.402       .  A
C222        H233   1.082       .  S
C223        C232   1.362       .  A
C223        C224   1.381       .  A
C224        C225   1.403       .  A
C225        C226   1.401       .  A
O227        C228   1.333       .  A
C229        H235   1.082       .  S
O230        C231   1.332       .  A
C232        H236   1.082       .  S
C237        C242   1.379       .  A
C237        C238   1.403       .  A
C237        O243   1.321       .  A
C238        C239   1.403       .  A
C238        H249   1.082       .  S
C239        C248   1.359       .  A
C239        C240   1.381       .  A
C241        H250   1.083       .  S
O243        C244   1.333       .  A
C244        C489   1.526       .  S
C245        H251   1.082       .  S
O246        C247   1.331       .  A
C248        H252   1.083       .  S
C253        C574   1.381   1_455  A
C253        C254   1.405       .  A
C253        O259   1.319       .  A
C254        C255   1.404       .  A
C254        H265   1.082       .  S
C255        C264   1.362       .  A
C255        C572   1.379   1_455  A
C256        C571   1.379       .  A
C256        C257   1.400       .  A
C256        O262   1.316       .  A
C257        C258   1.399       .  A
C257        H266   1.082       .  S
C258        C569   1.381       .  A
C258        C261   1.357       .  A
O259        C260   1.331       .  A
C260        C577   1.388   1_455  A
C261        C576   1.389       .  A
C261        H267   1.082       .  S
O262        C579   1.332       .  A
C263        C264   1.397       .  A
C263        O578   1.330   1_455  A
C264        H268   1.082       .  S
C269        C590   1.380       .  A
C269        C270   1.405       .  A
C269        O275   1.323       .  A
C270        C271   1.405       .  A
C270        H281   1.082       .  S
C271        C280   1.362       .  A
C271        C588   1.381       .  A
C272        C587   1.381   1_455  A
C272        C273   1.401       .  A
C272        O278   1.319       .  A
C273        C274   1.401       .  A
C273        H282   1.082       .  S
C274        C585   1.378   1_455  A
C274        C277   1.355       .  A
O275        C592   1.334       .  A
C276        C277   1.396       .  A
C276        O591   1.334   1_455  A
C277        H283   1.082       .  S
O278        C279   1.330   1_455  A
C279        C485   1.469       .  S
C279        C596   1.392       .  A
C280        C595   1.392       .  A
C280        H284   1.082       .  S
C285        C606   1.377       .  A
C285        C286   1.404       .  A
C285        O291   1.317       .  A
C286        C287   1.403       .  A
C286        H297   1.082       .  S
C287        C296   1.363       .  A
C287        C604   1.380       .  A
C288        C603   1.380   1_455  A
C288        C289   1.403       .  A
C288        O294   1.319       .  A
C289        C290   1.402       .  A
C289        H298   1.082       .  S
C290        C601   1.377   1_455  A
C290        C293   1.360       .  A
O291        C608   1.335       .  A
C292        C293   1.398       .  A
C292        O607   1.334   1_455  A
C293        H299   1.081       .  S
O294        C295   1.331   1_455  A
C295        C486   1.469       .  S
C295        C612   1.391       .  A
C296        C611   1.391       .  A
C296        H300   1.082       .  S
C301        C622   1.381   1_455  A
C301        C302   1.400       .  A
C301        O307   1.316       .  A
C302        C303   1.399       .  A
C302        H313   1.082       .  S
C303        C312   1.356       .  A
C303        C620   1.377   1_455  A
C304        C619   1.377       .  A
C304        C305   1.404       .  A
C304        O310   1.317       .  A
C305        C306   1.403       .  A
C305        H314   1.082       .  S
C306        C617   1.381       .  A
C306        C309   1.363       .  A
O307        C308   1.329   1_455  A
C308        C625   1.392       .  A
C309        C624   1.391       .  A
C309        H315   1.082       .  S
O310        C627   1.334       .  A
C311        C312   1.398       .  A
C311        O626   1.335   1_455  A
C312        H316   1.080       .  S
O317       Ni325   1.917       .  S
O318       Ni325   1.917       .  S
O319       Ni325   1.910       .  S
O319        C329   1.280       .  A
O320       Ni325   1.916       .  S
O320        C330   1.280       .  A
O321       Ni326   1.913       .  S
O322       Ni326   1.919       .  S
O323       Ni326   1.922       .  S
O323        C328   1.282       .  A
O324       Ni326   1.916       .  S
O324        C327   1.281       .  A
C329        C466   1.462       .  S
C330        C418   1.460       .  S
C331        C386   1.521   1_545  S
C331        C579   1.522   1_545  S
C331        C434   1.529       .  S
C332        C357   1.534       .  S
C332        C608   1.525       .  S
C332        C469   1.526   1_565  S
O333       Ni341   1.917       .  S
O333        C501   1.281   1_545  A
O334       Ni341   1.915   1_554  S
O334        C502   1.281   1_545  A
O335       Ni341   1.914   1_554  S
O335        C503   1.280   1_545  A
O336       Ni341   1.919       .  S
O336        C504   1.280   1_545  A
O337       Ni342   1.915   1_556  S
O337        C346   1.279       .  A
O338       Ni342   1.922       .  S
O338        C345   1.282       .  A
O339       Ni342   1.917       .  S
O339        C344   1.281       .  A
O340       Ni342   1.917   1_556  S
O340        C343   1.281       .  A
Ni341      Ni500   2.391   1_546  S
Ni342      Ni499   2.392   1_554  S
C343        O491   1.281       .  A
C343        C370   1.469       .  S
C344        O492   1.281       .  A
C344        C389   1.468       .  S
C345        O493   1.280       .  A
C345        C405   1.468       .  S
C346        O494   1.280       .  A
C346        C354   1.460       .  S
C347        C352   1.381       .  A
C347        C348   1.404       .  A
C347        O353   1.321       .  A
C348        C349   1.404       .  A
C348        H359   1.082       .  S
C349        C358   1.361       .  A
C349        C350   1.379       .  A
C350        C351   1.400       .  A
C350        O514   1.316       .  A
C351        C352   1.400       .  A
C351        H518   1.082       .  S
C352        C513   1.358       .  A
O353        C354   1.330       .  A
C354        C513   1.387       .  A
C355        C510   1.360       .  A
C355        C512   1.388       .  A
C355        H361   1.083       .  S
O356        C508   1.318       .  A
O356        C357   1.333       .  A
C357        C516   1.399       .  A
C358        C515   1.398       .  A
C358        H362   1.083       .  S
H360        C509   1.082       .  S
C363        C368   1.380   1_545  A
C363        C364   1.402       .  A
C363        O369   1.317       .  A
C364        C365   1.400       .  A
C364        H375   1.082       .  S
C365        C374   1.360       .  A
C365        C366   1.379   1_545  A
C366        C367   1.406       .  A
C366        O530   1.319       .  A
C367        C368   1.405       .  A
C367        H534   1.082       .  S
C368        C529   1.365       .  A
O369        C528   1.329   1_545  A
C370        C371   1.392       .  A
C370        O527   1.330       .  A
C371        C526   1.364       .  A
C371        H377   1.082       .  S
O372        C524   1.319       .  A
O372        C531   1.334       .  A
C373        C374   1.394       .  A
C373        O530   1.335   1_545  A
C374        H378   1.082       .  S
H376        C525   1.082       .  S
C379        C384   1.379   1_545  A
C379        C380   1.401       .  A
C379        O385   1.315       .  A
C380        C381   1.400       .  A
C380        H391   1.082       .  S
C381        C390   1.359       .  A
C381        C382   1.380   1_545  A
C382        C383   1.405       .  A
C382        O546   1.320       .  A
C383        C384   1.404       .  A
C383        H550   1.082       .  S
C384        C545   1.362       .  A
O385        C386   1.332   1_545  A
C386        C545   1.396       .  A
C387        C542   1.359       .  A
C387        C544   1.394       .  A
C387        H393   1.083       .  S
O388        C540   1.317       .  A
O388        C389   1.330       .  A
C389        C548   1.392       .  A
C390        C547   1.390   1_545  A
C390        H394   1.083       .  S
H392        C541   1.083       .  S
C395        C400   1.378   1_545  A
C395        C396   1.405       .  A
C395        O401   1.321       .  A
C396        C397   1.405       .  A
C396        H407   1.083       .  S
C397        C406   1.362       .  A
C397        C398   1.381   1_545  A
C398        C557   1.403       .  A
C398        O562   1.320       .  A
C399        C556   1.402       .  A
C399        C558   1.402       .  A
C399        H408   1.083       .  S
C400        C557   1.403       .  A
C400        C561   1.358       .  A
O401        C402   1.334   1_545  A
C402        C561   1.397       .  A
C403        C558   1.356       .  A
C403        C560   1.397       .  A
C403        H409   1.082       .  S
O404        C556   1.319       .  A
O404        C405   1.330       .  A
C405        C564   1.391       .  A
C406        C563   1.393   1_545  A
C406        H410   1.083       .  S
C411        C412   1.404       .  A
C411        O417   1.319       .  A
C412        C413   1.404       .  A
C412        H423   1.082       .  S
C413        C422   1.362       .  A
C414        C415   1.401       .  A
C414        O420   1.314       .  A
C415        C416   1.399       .  A
C415        H424   1.082       .  S
C416        C419   1.359       .  A
O417        C418   1.331       .  A
C419        H425   1.082       .  S
C421        C489   1.519       .  S
C421        C422   1.398       .  A
C422        H426   1.082       .  S
C427        C428   1.404       .  A
C427        O433   1.320       .  A
C428        C429   1.404       .  A
C428        H439   1.082       .  S
C429        C438   1.362       .  A
C430        C431   1.402       .  A
C430        O436   1.318       .  A
C431        C432   1.401       .  A
C431        H440   1.082       .  S
C432        C435   1.357       .  A
C434        C435   1.397       .  A
C435        H441   1.082       .  S
O436        C437   1.330       .  A
C438        H442   1.082       .  S
C443        C444   1.403       .  A
C443        O449   1.317       .  A
C444        C445   1.402       .  A
C444        H455   1.082       .  S
C445        C454   1.362       .  A
C446        C447   1.404       .  A
C446        O452   1.319       .  A
C447        C448   1.403       .  A
C447        H456   1.082       .  S
C448        C451   1.361       .  A
C450        C490   1.525       .  S
C450        C451   1.398       .  A
C451        H457   1.081       .  S
O452        C453   1.331       .  A
C454        H458   1.082       .  S
C459        C460   1.398       .  A
C459        O465   1.314       .  A
C460        C461   1.398       .  A
C460        H471   1.082       .  S
C461        C470   1.354       .  A
C462        C463   1.404       .  A
C462        O468   1.318       .  A
C463        C464   1.403       .  A
C463        H472   1.082       .  S
C464        C467   1.362       .  A
O465        C466   1.328       .  A
C467        H473   1.082       .  S
C469        C470   1.397       .  A
C470        H474   1.079       .  S
O475       Ni483   1.925       .  S
O476       Ni483   1.917       .  S
O477       Ni483   1.909       .  S
O477        C487   1.279       .  A
O478       Ni483   1.918       .  S
O478        C488   1.280       .  A
O479       Ni484   1.908       .  S
O480       Ni484   1.919       .  S
O481       Ni484   1.921       .  S
O481        C486   1.282       .  A
O482       Ni484   1.914       .  S
O482        C485   1.280       .  A
C487        C624   1.463       .  S
C488        C576   1.466       .  S
C489        C544   1.520       .  S
C489        C592   1.520       .  S
C490        C515   1.529       .  S
C490        C627   1.525       .  S
O491       Ni499   1.921       .  S
O492       Ni499   1.919   1_554  S
O493       Ni499   1.912   1_554  S
O494       Ni499   1.919       .  S
O495       Ni500   1.923   1_556  S
O495        C504   1.281       .  A
O496       Ni500   1.928       .  S
O496        C503   1.283       .  A
O497       Ni500   1.920       .  S
O497        C502   1.281       .  A
O498       Ni500   1.921   1_556  S
O498        C501   1.281       .  A
C501        C528   1.469       .  S
C502        C547   1.468       .  S
C503        C563   1.473       .  S
C504        C512   1.465       .  S
C505        C510   1.381       .  A
C505        C506   1.406       .  A
C505        O511   1.323       .  A
C506        C507   1.406       .  A
C506        H517   1.082       .  S
C507        C516   1.362       .  A
C507        C508   1.378       .  A
C508        C509   1.402       .  A
C509        C510   1.402       .  A
O511        C512   1.331       .  A
C513        H519   1.083       .  S
O514        C515   1.332       .  A
C516        H520   1.083       .  S
C521        C526   1.380       .  A
C521        C522   1.402       .  A
C521        O527   1.318       .  A
C522        C523   1.401       .  A
C522        H533   1.082       .  S
C523        C532   1.360       .  A
C523        C524   1.379       .  A
C524        C525   1.405       .  A
C525        C526   1.404       .  A
C528        C529   1.393       .  A
C529        H535   1.082       .  S
C531        C532   1.394       .  A
C532        H536   1.082       .  S
C537        C542   1.379       .  A
C537        C538   1.404       .  A
C537        O543   1.318       .  A
C538        C539   1.403       .  A
C538        H549   1.082       .  S
C539        C548   1.364       .  A
C539        C540   1.381       .  A
C540        C541   1.402       .  A
C541        C542   1.400       .  A
O543        C544   1.334       .  A
C545        H551   1.082       .  S
O546        C547   1.332       .  A
C548        H552   1.082       .  S
C553        C558   1.379       .  A
C553        C554   1.403       .  A
C553        O559   1.320       .  A
C554        C555   1.403       .  A
C554        H565   1.082       .  S
C555        C564   1.360       .  A
C555        C556   1.381       .  A
C557        H566   1.083       .  S
O559        C560   1.333       .  A
C561        H567   1.082       .  S
O562        C563   1.331       .  A
C564        H568   1.083       .  S
C569        C570   1.404       .  A
C569        O575   1.320       .  A
C570        C571   1.404       .  A
C570        H581   1.082       .  S
C571        C580   1.361       .  A
C572        C573   1.398       .  A
C572        O578   1.313       .  A
C573        C574   1.397       .  A
C573        H582   1.082       .  S
C574        C577   1.355       .  A
O575        C576   1.331       .  A
C577        H583   1.083       .  S
C579        C580   1.397       .  A
C580        H584   1.081       .  S
C585        C586   1.405       .  A
C585        O591   1.321       .  A
C586        C587   1.405       .  A
C586        H597   1.082       .  S
C587        C596   1.362       .  A
C588        C589   1.401       .  A
C588        O594   1.320       .  A
C589        C590   1.402       .  A
C589        H598   1.082       .  S
C590        C593   1.356       .  A
C592        C593   1.395       .  A
C593        H599   1.083       .  S
O594        C595   1.330       .  A
C596        H600   1.082       .  S
C601        C602   1.404       .  A
C601        O607   1.317       .  A
C602        C603   1.403       .  A
C602        H613   1.082       .  S
C603        C612   1.362       .  A
C604        C605   1.403       .  A
C604        O610   1.318       .  A
C605        C606   1.402       .  A
C605        H614   1.082       .  S
C606        C609   1.360       .  A
C608        C609   1.398       .  A
C609        H615   1.081       .  S
O610        C611   1.330       .  A
C612        H616   1.082       .  S
C617        C618   1.400       .  A
C617        O623   1.315       .  A
C618        C619   1.399       .  A
C618        H629   1.082       .  S
C619        C628   1.356       .  A
C620        C621   1.405       .  A
C620        O626   1.318       .  A
C621        C622   1.404       .  A
C621        H630   1.082       .  S
C622        C625   1.363       .  A
O623        C624   1.329       .  A
C625        H631   1.082       .  S
C627        C628   1.397       .  A
C628        H632   1.080       .  S
