geometry optimzed in LAMMPS
_audit_creation_date              2020-12-01 
_audit_creation_method            'lammps2cif' 
_symmetry_space_group_name_H-M    'P1' 
_symmetry_Int_Tables_number       1 
_symmetry_cell_setting            triclinic 
loop_ 
_symmetry_equiv_pos_as_xyz 
  x,y,z 
_cell_length_a                    33.70773318 
_cell_length_b                    33.958093341488876 
_cell_length_c                    33.75185888508462 
_cell_angle_alpha                 90.13914163174836 
_cell_angle_beta                  89.81089196606625 
_cell_angle_gamma                 89.87159159273584 
loop_ 
_atom_site_label 
_atom_site_type_symbol 
_atom_site_fract_x 
_atom_site_fract_y 
_atom_site_fract_z 
_atom_site_charge 
C1          C  0.82574315  0.30629306  0.46615913     0.79500
N2          N  0.80715972  0.29412630  0.49930578    -0.78800
C3          C  0.81901089  0.30597939  0.53555315     0.81900
N4          N  0.85067511  0.33077718  0.53843362    -0.78800
C5          C  0.86991805  0.34334326  0.50508661     0.82000
N6          N  0.85730313  0.33098462  0.46880137    -0.80500
C7          C  0.50433268  0.79988786  0.35600627     0.79500
N8          N  0.50384224  0.82943633  0.38330104    -0.78800
C9          C  0.46845010  0.84384759  0.39682832     0.81900
N10         N  0.43371764  0.82866764  0.38258663    -0.78800
C11         C  0.43458516  0.79914250  0.35508017     0.82000
N12         N  0.46991597  0.78535801  0.34228426    -0.80500
C13         C  0.31657301  0.41506037  0.85441755     0.79500
N14         N  0.34299161  0.41577361  0.88490712    -0.78800
C15         C  0.35688937  0.45081666  0.89903796     0.81900
N16         N  0.34405250  0.48523040  0.88259479    -0.78800
C17         C  0.31743177  0.48439214  0.85235776     0.82000
N18         N  0.30410421  0.44945376  0.83881045    -0.80500
C19         C  0.11051362  0.30207075  0.03848473     0.79500
N20         N  0.08531416  0.33317496  0.03516033    -0.78800
C21         C  0.07139733  0.34388017  0.99884620     0.81900
N22         N  0.08298335  0.32315764  0.96594803    -0.78800
C23         C  0.10829451  0.29184066  0.96942525     0.82000
N24         N  0.12168272  0.28199525  0.00579714    -0.80500
C25         C  0.32668981  0.99082052  0.14612586     0.79500
N26         N  0.31037940  0.95701573  0.15892423    -0.78800
C27         C  0.32270254  0.92171030  0.14528724     0.81900
N28         N  0.35256291  0.92019963  0.11802942    -0.78800
C29         C  0.36925520  0.95417938  0.10437180     0.82000
N30         N  0.35608516  0.98971515  0.11834364    -0.80500
C31         C  0.81938059  0.58648632  0.46351675     0.79500
N32         N  0.80484824  0.60135876  0.49768496    -0.78800
C33         C  0.81892998  0.58965502  0.53318937     0.81900
N34         N  0.84871972  0.56255729  0.53430819    -0.78800
C35         C  0.86384386  0.54728104  0.50002625     0.82000
N36         N  0.84901968  0.55924822  0.46444291    -0.80500
C37         C  0.11166220  0.59738088  0.02926013     0.79500
N38         N  0.08505204  0.56716770  0.03031378    -0.78800
C39         C  0.07156980  0.55091389  0.99575658     0.81900
N40         N  0.08464930  0.56530183  0.96035564    -0.78800
C41         C  0.11148077  0.59515244  0.95967654     0.82000
N42         N  0.12472827  0.61069768  0.99394953    -0.80500
N43         N  0.96821385  0.50850963  0.99601343    -0.37400
N44         N  0.02979074  0.44734153  0.99643695    -0.57900
N45         N  0.96771309  0.38659511  0.99732566    -0.37400
N46         N  0.90631295  0.44801127  0.00121448    -0.57900
C47         C  0.00083745  0.53095886  0.00213902     0.26200
C48         C  0.93591156  0.53131118  0.00307510     0.26200
C49         C  0.00040669  0.36388112  0.00244819     0.26200
C50         C  0.93544861  0.36428619  0.00575013     0.26200
C51         C  0.05317817  0.47937677  0.99119196     0.34800
C52         C  0.05295768  0.41506541  0.99098938     0.34800
C53         C  0.88281981  0.48010530  0.99651671     0.34800
C54         C  0.88254503  0.41596546  0.99877872     0.34800
C55         C  0.98898667  0.56870604  0.01277822    -0.22600
C56         C  0.94820486  0.56894526  0.01329468    -0.22600
C57         C  0.98860494  0.32635992  0.01369554    -0.22600
C58         C  0.94781478  0.32663089  0.01574242    -0.22600
C59         C  0.09160536  0.46732337  0.98265664    -0.23700
C60         C  0.09146536  0.42671324  0.98255575    -0.23700
C61         C  0.84374965  0.46836514  0.99173361    -0.23700
C62         C  0.84355960  0.42786389  0.99323602    -0.23700
C63         C  0.04095359  0.51921830  0.99643752    -0.19000
C64         C  0.89564460  0.51989217  0.99881550    -0.19000
C65         C  0.89507736  0.37619694  0.00309157    -0.19000
C66         C  0.04055216  0.37535179  0.99614753    -0.19000
H67         H  0.00770434  0.59377504  0.01908150     0.13900
H68         H  0.92978578  0.59419296  0.02021744     0.13900
H69         H  0.00737030  0.30115572  0.01956580     0.13900
H70         H  0.92938301  0.30176749  0.02353063     0.13900
H71         H  0.11721259  0.48583053  0.97755319     0.12100
H72         H  0.11692806  0.40790678  0.97733754     0.12100
H73         H  0.81795255  0.48703384  0.98809706     0.12100
H74         H  0.81758417  0.40933690  0.99083931     0.12100
H75         H  0.96790284  0.47973899  0.98544385     0.25400
H76         H  0.96739334  0.41535300  0.98687944     0.25400
C77         C  0.61987700  0.91281339  0.14894948     0.79500
N78         N  0.63271345  0.94751913  0.16347547    -0.78800
C79         C  0.61861159  0.98217917  0.14973684     0.81900
N80         N  0.59052600  0.98175769  0.12082509    -0.78800
C81         C  0.57721542  0.94695001  0.10569400     0.82000
N82         N  0.59212554  0.91229719  0.11973016    -0.80500
N83         N  0.41255843  0.95030668  0.00079107    -0.37400
N84         N  0.47362763  0.94932206  0.06305520    -0.57900
N85         N  0.53519312  0.94431860  0.00179046    -0.37400
N86         N  0.47395071  0.94591650  0.93937520    -0.57900
C87         C  0.38889564  0.94915303  0.03335885     0.26200
C88         C  0.38917994  0.94535027  0.96847245     0.26200
C89         C  0.55832034  0.94910910  0.03430138     0.26200
C90         C  0.55843123  0.94976795  0.96939762     0.26200
C91         C  0.44111837  0.95149778  0.08666712     0.34800
C92         C  0.50566892  0.94761591  0.08712806     0.34800
C93         C  0.44186849  0.94393608  0.91538232     0.34800
C94         C  0.50654808  0.94467873  0.91589112     0.34800
C95         C  0.34986329  0.94413564  0.02144684    -0.22600
C96         C  0.35004898  0.94161514  0.98078181    -0.22600
C97         C  0.59693249  0.95678507  0.02233020    -0.22600
C98         C  0.59699847  0.95731062  0.98159014    -0.22600
C99         C  0.45268042  0.95134149  0.12607321    -0.23700
C100        C  0.49339223  0.94868627  0.12636481    -0.23700
C101        C  0.45422256  0.94135118  0.87623157    -0.23700
C102        C  0.49506878  0.94183924  0.87654369    -0.23700
C103        C  0.40102586  0.95237042  0.07363161    -0.19000
C104        C  0.40158833  0.94408674  0.92808865    -0.19000
C105        C  0.54647421  0.94756700  0.92904861    -0.19000
C106        C  0.54595111  0.94688627  0.07456381    -0.19000
H107        H  0.32378273  0.94220759  0.04009885     0.13900
H108        H  0.32414706  0.93730667  0.96241240     0.13900
H109        H  0.62243672  0.96203100  0.04100103     0.13900
H110        H  0.62266742  0.96284056  0.96308464     0.13900
H111        H  0.43374321  0.95265327  0.15200926     0.12100
H112        H  0.51184651  0.94810175  0.15254643     0.12100
H113        H  0.43575866  0.93930283  0.85013188     0.12100
H114        H  0.51411357  0.94048624  0.85068841     0.12100
H115        H  0.44276247  0.95506905  0.00072889     0.25400
H116        H  0.50556535  0.93656927  0.00167135     0.25400
C117        C  0.82067216  0.30352004  0.96805626     0.79500
N118        N  0.80539906  0.29043433  0.00258591    -0.78800
C119        C  0.81933820  0.30359340  0.03765209     0.81900
N120        N  0.84877757  0.33113851  0.03822099    -0.78800
C121        C  0.86408790  0.34495144  0.00336952     0.82000
N122        N  0.85012556  0.33076804  0.96829357    -0.80500
O123        O  0.72167720  0.67781203  0.17092409    -0.82600
C124        C  0.74090717  0.65893493  0.33179996     0.96800
O125        O  0.73697379  0.63902228  0.30071497    -0.71700
O126        O  0.72173607  0.61862013  0.22682834    -0.75300
Al127      Al  0.75528656  0.65847989  0.25200997     1.49000
C128        C  0.68485195  0.61809235  0.21874967     0.92100
O129        O  0.64149170  0.72043611  0.24274532    -0.81500
O130        O  0.69660151  0.77402944  0.25691435    -0.75000
Al131      Al  0.68530959  0.69909379  0.21085895     1.90100
O132        O  0.66466692  0.71463746  0.30293631    -0.74100
O133        O  0.76688866  0.74943808  0.27934265    -0.74000
O134        O  0.73595125  0.69596347  0.33087170    -0.79600
O135        O  0.79598646  0.69155610  0.27718787    -0.77800
O136        O  0.71908231  0.69604150  0.25066913    -1.14000
O137        O  0.77764955  0.67319928  0.20340917    -0.73200
C138        C  0.75858801  0.67015143  0.17167225     0.97600
C139        C  0.63627641  0.72242750  0.28005427     0.94000
Al140      Al  0.71615139  0.73079381  0.28960343     1.55600
O141        O  0.66455571  0.64913868  0.22096047    -0.77800
C142        C  0.79748761  0.72864117  0.28325217     0.98100
C143        C  0.69608928  0.77867849  0.21954914     0.93000
O144        O  0.70293433  0.74982421  0.19699320    -0.83100
C145        C  0.61185171  0.41603205  0.14753963     0.79500
N146        N  0.62641065  0.45156396  0.15806321    -0.78800
C147        C  0.61337774  0.48516133  0.14140519     0.81900
N148        N  0.58469829  0.48373322  0.11317249    -0.78800
C149        C  0.56988278  0.44818000  0.10149739     0.82000
N150        N  0.58329367  0.41446184  0.11901756    -0.80500
O151        O  0.65721116  0.25200801  0.23659581    -0.82600
C152        C  0.79583577  0.16865425  0.27824222     0.96800
O153        O  0.79276984  0.20579669  0.27488754    -0.71700
O154        O  0.76718635  0.22680542  0.20411479    -0.75300
Al155      Al  0.75025645  0.23953928  0.25554358     1.49000
C156        C  0.74499302  0.23163347  0.17457864     0.92100
O157        O  0.69040755  0.15248540  0.20061481    -0.81500
O158        O  0.66655769  0.17853922  0.31283313    -0.75000
Al159      Al  0.67571922  0.20238943  0.22026742     1.90100
O160        O  0.69262868  0.12404705  0.25861960    -0.74100
O161        O  0.73982026  0.19703503  0.33304999    -0.74000
O162        O  0.76566628  0.14735442  0.27372650    -0.79600
O163        O  0.73680277  0.25588839  0.30710556    -0.77800
O164        O  0.71391946  0.20222609  0.25582022    -1.14000
O165        O  0.71528058  0.28073271  0.23580067    -0.73200
C166        C  0.67786584  0.28243183  0.23180544     0.97600
C167        C  0.68718208  0.12194533  0.22151236     0.94000
Al168      Al  0.71594342  0.16460726  0.29185089     1.55600
O169        O  0.70795418  0.22532943  0.17787463    -0.77800
C170        C  0.74482596  0.23395030  0.33603015     0.98100
C171        C  0.63553829  0.17442003  0.29267036     0.93000
O172        O  0.63588533  0.17984561  0.25540617    -0.83100
C173        C  0.49946192  0.09472629  0.35837010     0.79500
N174        N  0.50006128  0.06617618  0.38663073    -0.78800
C175        C  0.46547867  0.05025276  0.40023539     0.81900
N176        N  0.43003618  0.06372353  0.38616864    -0.78800
C177        C  0.42973693  0.09220332  0.35790766     0.82000
N178        N  0.46414373  0.10703818  0.34445524    -0.80500
C179        C  0.93364611  0.09979646  0.64798108     0.79500
N180        N  0.93260181  0.07363285  0.61729538    -0.78800
C181        C  0.96687477  0.05631739  0.60432725     0.81900
N182        N  0.00175419  0.06449418  0.62297453    -0.78800
C183        C  0.00254069  0.09034375  0.65390682     0.82000
N184        N  0.96858732  0.10813271  0.66535040    -0.80500
N185        N  0.96783247  0.89194434  0.50028405    -0.37400
N186        N  0.96717611  0.95369413  0.56183464    -0.57900
N187        N  0.96409195  0.01413745  0.50005343    -0.37400
N188        N  0.96790801  0.95229881  0.43834082    -0.57900
C189        C  0.96864202  0.86886113  0.53298368     0.26200
C190        C  0.96830761  0.86811987  0.46795792     0.26200
C191        C  0.96913263  0.03736454  0.53247753     0.26200
C192        C  0.96988222  0.03670425  0.46744233     0.26200
C193        C  0.96472938  0.92173761  0.58559380     0.34800
C194        C  0.96346403  0.98578114  0.58543777     0.34800
C195        C  0.96652927  0.92004898  0.41464611     0.34800
C196        C  0.96596649  0.98425793  0.41451524     0.34800
C197        C  0.96992848  0.82968399  0.52124903    -0.22600
C198        C  0.96967706  0.82921124  0.48041819    -0.22600
C199        C  0.97750093  0.07540583  0.52022549    -0.22600
C200        C  0.97791871  0.07501903  0.47937661    -0.22600
C201        C  0.95974950  0.93371114  0.62464253    -0.23700
C202        C  0.95890439  0.97410757  0.62452649    -0.23700
C203        C  0.96418158  0.93170125  0.37536716    -0.23700
C204        C  0.96383671  0.97219525  0.37527879    -0.23700
C205        C  0.96712577  0.88180170  0.57311925    -0.19000
C206        C  0.96706633  0.88016683  0.42754101    -0.19000
C207        C  0.96731247  0.02420857  0.42719360    -0.19000
C208        C  0.96576746  0.02554143  0.57281189    -0.19000
H209        H  0.97056105  0.80396537  0.54011978     0.13900
H210        H  0.97022811  0.80304783  0.46204145     0.13900
H211        H  0.98287612  0.10086800  0.53878198     0.13900
H212        H  0.98366537  0.10019163  0.46062730     0.13900
H213        H  0.95694090  0.91528945  0.65062510     0.12100
H214        H  0.95556588  0.99272173  0.65039644     0.12100
H215        H  0.96273897  0.91300116  0.34939643     0.12100
H216        H  0.96235266  0.99062767  0.34920576     0.12100
H217        H  0.96653017  0.92204578  0.50014324     0.25400
H218        H  0.95568143  0.98504090  0.50007305     0.25400
C219        C  0.12317119  0.30891997  0.54463713     0.79500
N220        N  0.09282164  0.33543912  0.54428038    -0.78800
C221        C  0.07873219  0.34892844  0.50891045     0.81900
N222        N  0.09512419  0.33564915  0.47434090    -0.78800
C223        C  0.12550403  0.30916364  0.47504158     0.82000
N224        N  0.13900166  0.29617906  0.51024724    -0.80500
C225        C  0.32461731  0.90528475  0.85930022     0.79500
N226        N  0.35555646  0.90660300  0.88511850    -0.78800
C227        C  0.36987084  0.94216239  0.89741919     0.81900
N228        N  0.35329568  0.97608584  0.88336124    -0.78800
C229        C  0.32248050  0.97451856  0.85733012     0.82000
N230        N  0.30872768  0.93908497  0.84565827    -0.80500
O231        O  0.24179697  0.14050250  0.80759626    -0.82600
C232        C  0.19722282  0.23014613  0.67474843     0.96800
O233        O  0.20417261  0.19335858  0.67445374    -0.71700
O234        O  0.27587909  0.17769118  0.70149207    -0.75300
Al235      Al  0.22575877  0.15843713  0.71495113     1.49000
C236        C  0.30494916  0.17138181  0.72373833     0.92100
O237        O  0.27213726  0.24355967  0.78220967    -0.81500
O238        O  0.16153465  0.20861584  0.80319773    -0.75000
Al239      Al  0.25556212  0.19206786  0.79338970     1.90100
O240        O  0.21230210  0.26887834  0.78058898    -0.74100
O241        O  0.14360043  0.19235449  0.72886371    -0.74000
O242        O  0.19821011  0.24919417  0.70663840    -0.79600
O243        O  0.17596866  0.13615537  0.72417660    -0.77800
O244        O  0.22081220  0.19242330  0.75440396    -1.14000
O245        O  0.24806788  0.11610806  0.74769901    -0.73200
C246        C  0.24956688  0.11176611  0.78514317     0.97600
C247        C  0.24942357  0.27286333  0.78601968     0.94000
Al248      Al  0.18180175  0.22709199  0.75474979     1.55600
O249        O  0.30041876  0.17338641  0.76113890    -0.77800
C250        C  0.14444734  0.15571095  0.72094526     0.98100
C251        C  0.18072735  0.21298963  0.83478955     0.93000
O252        O  0.21839514  0.21056362  0.83415334    -0.83100
C253        C  0.43670845  0.08958177  0.65277205     0.79500
N254        N  0.47199835  0.10318042  0.66548111    -0.78800
C255        C  0.50619327  0.09006933  0.64934301     0.81900
N256        N  0.50538444  0.06248031  0.62005099    -0.78800
C257        C  0.46988705  0.04820702  0.60711163     0.82000
N258        N  0.43540871  0.06218706  0.62325180    -0.80500
O259        O  0.63945994  0.17440454  0.75799961    -0.82600
C260        C  0.79765819  0.17311492  0.72364904     0.96800
O261        O  0.76845461  0.15080914  0.72936489    -0.71700
O262        O  0.69814571  0.12344940  0.74885957    -0.75300
Al263      Al  0.71716328  0.16590239  0.71515522     1.49000
C264        C  0.69583131  0.12042692  0.78627095     0.92100
O265        O  0.71334297  0.22314990  0.83108484    -0.81500
O266        O  0.71306006  0.28050004  0.77410608    -0.75000
Al267      Al  0.68035245  0.19906576  0.79067851     1.90100
O268        O  0.77076978  0.22882228  0.80097708    -0.74100
O269        O  0.73248442  0.25836436  0.70115283    -0.74000
O270        O  0.79345468  0.21021003  0.72791730    -0.79600
O271        O  0.73678937  0.20029376  0.67327295    -0.77800
O272        O  0.71573461  0.20244454  0.75229966    -1.14000
O273        O  0.66557980  0.17808630  0.69833510    -0.73200
C274        C  0.63637668  0.17106504  0.72056726     0.97600
C275        C  0.75025712  0.23034305  0.83211804     0.94000
Al276      Al  0.74990628  0.24162928  0.75116448     1.55600
O277        O  0.70055828  0.15048472  0.80749360    -0.77800
C278        C  0.73873308  0.23754908  0.67087008     0.98100
C279        C  0.67584405  0.27909764  0.78080773     0.93000
O280        O  0.65727720  0.24723712  0.77763726    -0.83100
C281        C  0.60845453  0.48674505  0.85307976     0.79500
N282        N  0.61834873  0.45278218  0.83492970    -0.78800
C283        C  0.60089038  0.41844952  0.84426492     0.81900
N284        N  0.57360617  0.41788376  0.87422055    -0.78800
C285        C  0.56375685  0.45187937  0.89366227     0.82000
N286        N  0.58100890  0.48652903  0.88275089    -0.80500
O287        O  0.77433292  0.67870355  0.80044315    -0.82600
C288        C  0.63817665  0.72401004  0.71567659     0.96800
O289        O  0.64024566  0.72088377  0.75313114    -0.71700
O290        O  0.66408804  0.64954536  0.77348770    -0.75300
Al291      Al  0.68196099  0.69986527  0.78713813     1.49000
C292        C  0.68548524  0.61977171  0.77968856     0.92100
O293        O  0.74108069  0.64315662  0.70067413    -0.81500
O294        O  0.76847411  0.75372287  0.72681819    -0.75000
Al295      Al  0.75610724  0.66255456  0.75060280     1.90100
O296        O  0.74088421  0.70066278  0.67162857    -0.74100
O297        O  0.69624659  0.77659707  0.74526403    -0.74000
O298        O  0.66863525  0.71892863  0.69469262    -0.79600
O299        O  0.69700847  0.74996021  0.80413189    -0.77800
O300        O  0.71888543  0.69903791  0.75005458    -1.14000
O301        O  0.71572877  0.67920534  0.82881558    -0.73200
C302        C  0.75310282  0.67484274  0.83089693     0.97600
C303        C  0.74516149  0.66355195  0.66980693     0.94000
Al304      Al  0.71853052  0.73482224  0.71238532     1.55600
O305        O  0.72267741  0.62184924  0.77394569    -0.77800
C306        C  0.69307229  0.77985929  0.78261204     0.98100
C307        C  0.79892007  0.73279423  0.72197531     0.93000
O308        O  0.79729002  0.69583553  0.72759852    -0.83100
C309        C  0.43099055  0.79504570  0.63969649     0.79500
N310        N  0.43156219  0.82627493  0.61468306    -0.78800
C311        C  0.46704629  0.84172865  0.60317096     0.81900
N312        N  0.50156149  0.82582738  0.61696888    -0.78800
C313        C  0.50061462  0.79408250  0.64158463     0.82000
N314        N  0.46522314  0.77921105  0.65237599    -0.80500
O315        O  0.21872261  0.67472145  0.82249587    -0.82600
C316        C  0.18887033  0.66796581  0.66329138     0.96800
O317        O  0.19334490  0.64569770  0.69267795    -0.71700
O318        O  0.21053986  0.61957124  0.76444723    -0.75300
Al319      Al  0.17829343  0.66219683  0.74359517     1.49000
C320        C  0.24754054  0.61593574  0.76992338     0.92100
O321        O  0.29496683  0.71590797  0.74741874    -0.81500
O322        O  0.24073844  0.77528936  0.74384559    -0.75000
Al323      Al  0.25327505  0.69568898  0.78144974     1.90100
O324        O  0.26552614  0.72020835  0.68970549    -0.74100
O325        O  0.16695054  0.75505440  0.72628115    -0.74000
O326        O  0.19285698  0.70499071  0.66698151    -0.79600
O327        O  0.13781023  0.69754845  0.72291786    -0.77800
O328        O  0.21600907  0.69804848  0.74499761    -1.14000
O329        O  0.16011980  0.67534226  0.79432388    -0.73200
C330        C  0.18126232  0.67072272  0.82461305     0.97600
C331        C  0.29654278  0.72116002  0.71015789     0.94000
Al332      Al  0.21646831  0.73610352  0.70945495     1.55600
O333        O  0.26968873  0.64529134  0.76530252    -0.77800
C334        C  0.13620229  0.73486741  0.72054911     0.98100
C335        C  0.24680012  0.77635010  0.78090018     0.93000
O336        O  0.24092815  0.74601175  0.80137410    -0.83100
C337        C  0.99885736  0.80912872  0.34905265     0.79500
N338        N  0.99985664  0.83793244  0.37725751    -0.78800
C339        C  0.96591940  0.84874466  0.39663705     0.81900
N340        N  0.93091779  0.83083033  0.38736308    -0.78800
C341        C  0.93046109  0.80131168  0.35998058     0.82000
N342        N  0.96432436  0.79071785  0.34153248    -0.80500
O343        O  0.16880448  0.76100007  0.27233983    -0.82600
C344        C  0.24866699  0.62652984  0.21508218     0.96800
O345        O  0.21102670  0.62956002  0.21773467    -0.71700
O346        O  0.18868052  0.64857584  0.28953607    -0.75300
Al347      Al  0.17721145  0.67088587  0.24045330     1.49000
C348        C  0.18785927  0.66704830  0.32174507     0.92100
O349        O  0.26840676  0.72099105  0.29916721    -0.81500
O350        O  0.23819049  0.75728964  0.19111518    -0.75000
Al351      Al  0.21838032  0.73932553  0.28339336     1.90100
O352        O  0.29536805  0.72736539  0.24084303    -0.74100
O353        O  0.22044548  0.68592106  0.16412238    -0.74000
O354        O  0.27042978  0.65622231  0.22027425    -0.79600
O355        O  0.16127505  0.68893028  0.18994665    -0.77800
O356        O  0.21596549  0.70562020  0.24371747    -1.14000
O357        O  0.13668089  0.70539423  0.26399664    -0.73200
C358        C  0.13731764  0.74146315  0.27435996     0.97600
C359        C  0.29836033  0.72841095  0.27831651     0.94000
Al360      Al  0.25324394  0.70668474  0.20681735     1.55600
O361        O  0.19600512  0.70355561  0.32295780    -0.77800
C362        C  0.18328478  0.68154731  0.16058223     0.98100
C363        C  0.24416238  0.78627034  0.21369281     0.93000
O364        O  0.24094888  0.78214042  0.25115549    -0.83100
C365        C  0.32520804  0.41740133  0.15694948     0.79500
N366        N  0.35062788  0.41545651  0.12556628    -0.78800
C367        C  0.36229849  0.44921028  0.10706095     0.81900
N368        N  0.34790152  0.48471499  0.11965966    -0.78800
C369        C  0.32250738  0.48637261  0.15106742     0.82000
N370        N  0.31189834  0.45277898  0.16917953    -0.80500
C371        C  0.11633310  0.59458271  0.45980881     0.79500
N372        N  0.12860419  0.60975400  0.49474535    -0.78800
C373        C  0.11346515  0.59718210  0.52946840     0.81900
N374        N  0.08515167  0.56887282  0.52986328    -0.78800
C375        C  0.07186087  0.55347892  0.49511639     0.82000
N376        N  0.08787061  0.56598114  0.46007375    -0.80500
C377        C  0.99947805  0.81099319  0.65069536     0.79500
N378        N  0.96394486  0.79876383  0.66435715    -0.78800
C379        C  0.92977412  0.81203466  0.64882340     0.81900
N380        N  0.93061194  0.83832163  0.61859451    -0.78800
C381        C  0.96615755  0.85135534  0.60453658     0.82000
N382        N  0.00063241  0.83742036  0.62039756    -0.80500
C383        C  0.62508479  0.91646912  0.85819429     0.79500
N384        N  0.59469500  0.91499925  0.88473742    -0.78800
C385        C  0.57832458  0.94911619  0.89863215     0.81900
N386        N  0.59239561  0.98454220  0.88571929    -0.78800
C387        C  0.62284099  0.98555970  0.85914606     0.82000
N388        N  0.63863576  0.95155888  0.84589303    -0.80500
C389        C  0.00179595  0.09877029  0.35410665     0.79500
N390        N  0.96675848  0.11221643  0.34073398    -0.78800
C391        C  0.93193975  0.09793295  0.35384276     0.81900
N392        N  0.93190154  0.06931548  0.38203018    -0.78800
C393        C  0.96708237  0.05519375  0.39615833     0.82000
N394        N  0.00201972  0.06970151  0.38182654    -0.80500
O395        O  0.29788700  0.17945754  0.25021218    -0.82600
C396        C  0.13934388  0.16808148  0.28081085     0.96800
O397        O  0.16949249  0.14682756  0.27590791    -0.71700
O398        O  0.24154811  0.12392271  0.25544602    -0.75300
Al399      Al  0.21951556  0.16464643  0.29046702     1.49000
C400        C  0.24632329  0.12251934  0.21798647     0.92100
O401        O  0.22306042  0.22615147  0.17637971    -0.81500
O402        O  0.21660038  0.28007088  0.23449083    -0.75000
Al403      Al  0.25650862  0.20252014  0.21728990     1.90100
O404        O  0.16427475  0.22583989  0.20410604    -0.74100
O405        O  0.19748194  0.25589561  0.30559983    -0.74000
O406        O  0.14095828  0.20515775  0.27622881    -0.79600
O407        O  0.19759082  0.19762704  0.33286710    -0.77800
O408        O  0.21928828  0.20184540  0.25412067    -1.14000
O409        O  0.26962482  0.17929756  0.30867741    -0.73200
C410        C  0.29998614  0.17482450  0.28750460     0.97600
C411        C  0.18585538  0.23200267  0.17422438     0.94000
Al412      Al  0.18248927  0.23888924  0.25503601     1.55600
O413        O  0.24158533  0.15311845  0.19756235    -0.77800
C414        C  0.19376273  0.23475253  0.33589086     0.98100
C415        C  0.25403441  0.28206482  0.23092842     0.93000
O416        O  0.27484862  0.25152340  0.23428259    -0.83100
C417        C  0.82390803  0.59401354  0.96090220     0.79500
N418        N  0.85105342  0.56435684  0.96182206    -0.78800
C419        C  0.86529534  0.55179320  0.99744077     0.81900
N420        N  0.85320652  0.57006518  0.03154947    -0.78800
C421        C  0.82648796  0.60031004  0.03017367     0.82000
N422        N  0.81176061  0.61101077  0.99484117    -0.80500
N423        N  0.46487628  0.44431823  0.06194186    -0.37400
N424        N  0.40125154  0.44960079  0.00207626    -0.57900
N425        N  0.46130673  0.44941877  0.93910678    -0.37400
N426        N  0.52487991  0.44903371  0.99892304    -0.57900
C427        C  0.43294170  0.44909202  0.08597977     0.26200
C428        C  0.49796890  0.44853689  0.08430922     0.26200
C429        C  0.42824481  0.45531780  0.91712666     0.26200
C430        C  0.49323932  0.45526860  0.91538470     0.26200
C431        C  0.37844991  0.44619498  0.03500357     0.34800
C432        C  0.37661000  0.44768916  0.97046086     0.34800
C433        C  0.54952938  0.44502542  0.03033995     0.34800
C434        C  0.54762173  0.44719570  0.96577011     0.34800
C435        C  0.44599932  0.45543948  0.12444880    -0.22600
C436        C  0.48681328  0.45508604  0.12339012    -0.22600
C437        C  0.43942848  0.46462136  0.87865810    -0.22600
C438        C  0.48023633  0.46466310  0.87758929    -0.22600
C439        C  0.33893646  0.44269962  0.02421589    -0.23700
C440        C  0.33778660  0.44356903  0.98346832    -0.23700
C441        C  0.58829180  0.44109137  0.01701395    -0.23700
C442        C  0.58708409  0.44239271  0.97627647    -0.23700
C443        C  0.39228562  0.44757518  0.07473345    -0.19000
C444        C  0.53802331  0.44645244  0.07092904    -0.19000
C445        C  0.53380458  0.45121059  0.92616914    -0.19000
C446        C  0.38825040  0.45122600  0.93008298    -0.19000
H447        H  0.42801530  0.46013173  0.15067598     0.13900
H448        H  0.50605873  0.45947356  0.14862253     0.13900
H449        H  0.42025017  0.47058812  0.85372851     0.13900
H450        H  0.49825151  0.47070555  0.85172426     0.13900
H451        H  0.31350948  0.43995950  0.04367874     0.12100
H452        H  0.31130648  0.44178587  0.96550640     0.12100
H453        H  0.61476062  0.43781082  0.03478925     0.12100
H454        H  0.61247127  0.44035531  0.95665010     0.12100
H455        H  0.46403187  0.43759891  0.03198823     0.25400
H456        H  0.46210321  0.44013049  0.96832002     0.25400
N457        N  0.46983539  0.00714200  0.50300829    -0.37400
N458        N  0.46824593  0.94560797  0.56358060    -0.57900
N459        N  0.46947770  0.88530520  0.50075742    -0.37400
N460        N  0.46675406  0.94666792  0.44027145    -0.57900
C461        C  0.46374238  0.02945452  0.53587272     0.26200
C462        C  0.46247682  0.03001406  0.47099280     0.26200
C463        C  0.46383162  0.86217852  0.53291413     0.26200
C464        C  0.46374060  0.86275464  0.46805429     0.26200
C465        C  0.47249023  0.97729040  0.58765155     0.34800
C466        C  0.47197528  0.91314590  0.58651731     0.34800
C467        C  0.47129068  0.97912351  0.41747713     0.34800
C468        C  0.47178925  0.91496336  0.41627804     0.34800
C469        C  0.45299591  0.06722266  0.52451343    -0.22600
C470        C  0.45213787  0.06756331  0.48372036    -0.22600
C471        C  0.45494458  0.82422877  0.52038964    -0.22600
C472        C  0.45495219  0.82460062  0.47965459    -0.22600
C473        C  0.47839568  0.96483246  0.62629927    -0.23700
C474        C  0.47800381  0.92430754  0.62558959    -0.23700
C475        C  0.47878130  0.96792219  0.37860503    -0.23700
C476        C  0.47910806  0.92739108  0.37786293    -0.23700
C477        C  0.46894566  0.01726424  0.57578380    -0.19000
C478        C  0.46656001  0.01866007  0.43062072    -0.19000
C479        C  0.46792530  0.87500184  0.42803494    -0.19000
C480        C  0.46804751  0.87361968  0.57322077    -0.19000
H481        H  0.44647015  0.09207440  0.54360646     0.13900
H482        H  0.44491996  0.09277155  0.46553147     0.13900
H483        H  0.44942486  0.79863845  0.53862575     0.13900
H484        H  0.44955026  0.79939976  0.46078504     0.13900
H485        H  0.48203339  0.98301541  0.65241372     0.12100
H486        H  0.48137433  0.90525902  0.65103174     0.12100
H487        H  0.48323689  0.98695341  0.35330395     0.12100
H488        H  0.48387059  0.90917659  0.35191140     0.12100
H489        H  0.48032210  0.97855019  0.50236452     0.25400
H490        H  0.47853503  0.91428997  0.50116663     0.25400
N491        N  0.97330205  0.38713526  0.51026205    -0.37400
N492        N  0.03281561  0.44970957  0.50148610    -0.57900
N493        N  0.96931465  0.50884023  0.50026028    -0.37400
N494        N  0.90988989  0.44626907  0.50535458    -0.57900
C495        C  0.00656244  0.36556306  0.50341197     0.26200
C496        C  0.94152016  0.36365979  0.50324274     0.26200
C497        C  0.00090923  0.53236052  0.49276874     0.26200
C498        C  0.93588922  0.53054711  0.49538693     0.26200
C499        C  0.05728283  0.41899631  0.50912413     0.34800
C500        C  0.05526357  0.48270062  0.50311807     0.34800
C501        C  0.88749700  0.41385419  0.51167385     0.34800
C502        C  0.88539521  0.47778183  0.50858315     0.34800
C503        C  0.99578369  0.32763787  0.49262756    -0.22600
C504        C  0.95486016  0.32646713  0.49241142    -0.22600
C505        C  0.98733212  0.56979139  0.48339879    -0.22600
C506        C  0.94645492  0.56865529  0.48505340    -0.22600
C507        C  0.09557659  0.43251177  0.51514295    -0.23700
C508        C  0.09432236  0.47273498  0.51127397    -0.23700
C509        C  0.84841471  0.42488164  0.51853143    -0.23700
C510        C  0.84712986  0.46523706  0.51680585    -0.23700
C511        C  0.04631760  0.37873920  0.50793184    -0.19000
C512        C  0.90090500  0.37440760  0.50777190    -0.19000
C513        C  0.89623588  0.51752825  0.50157068    -0.19000
C514        C  0.04161425  0.52164899  0.49613299    -0.19000
H515        H  0.01535869  0.30330681  0.48549504     0.13900
H516        H  0.93699323  0.30101605  0.48519240     0.13900
H517        H  0.00502748  0.59546605  0.47655597     0.13900
H518        H  0.92681494  0.59331409  0.47971759     0.13900
H519        H  0.12184002  0.41517424  0.52120249     0.12100
H520        H  0.11943133  0.49235517  0.51401525     0.12100
H521        H  0.82313761  0.40589070  0.52319406     0.12100
H522        H  0.82077115  0.48319244  0.52028435     0.12100
H523        H  0.97246327  0.41574523  0.52098772     0.25400
H524        H  0.97054338  0.48003776  0.50984018     0.25400
C525        C  0.03823485  0.11568791  0.33619247    -0.06900
C526        C  0.03429971  0.13528370  0.29940457    -0.18000
C527        C  0.06663796  0.15243217  0.28031194     0.10300
C528        C  0.10411845  0.14967411  0.29780101    -0.06800
C529        C  0.10856336  0.13018876  0.33420093    -0.18000
C530        C  0.07603092  0.11407664  0.35406768     0.10400
S531        S  0.05836594  0.17665583  0.23351393    -0.33000
S532        S  0.08461451  0.09476914  0.40296503    -0.33000
H533        H  0.05184474  0.11437168  0.41991127     0.28400
H534        H  0.09588013  0.16820769  0.21719235     0.28400
H535        H  0.00576410  0.13715554  0.28486433     0.18900
H536        H  0.13748680  0.12906221  0.34814372     0.19000
C537        C  0.30923882  0.38238248  0.17743594    -0.06900
C538        C  0.27145302  0.38604285  0.19520584    -0.18000
C539        C  0.25380007  0.35500670  0.21570744     0.10300
C540        C  0.27363036  0.31847944  0.21727359    -0.06800
C541        C  0.31204509  0.31519827  0.20079743    -0.18000
C542        C  0.33019240  0.34672479  0.18151269     0.10400
S543        S  0.20639215  0.36312854  0.23981168    -0.33000
S544        S  0.38019356  0.33959377  0.16384077    -0.33000
H545        H  0.39361320  0.37662358  0.17688569     0.28400
H546        H  0.20398662  0.40398193  0.23342076     0.28400
H547        H  0.25521438  0.41343541  0.19270060     0.18900
H548        H  0.32806671  0.28754472  0.20218333     0.19000
C549        C  0.17253099  0.64605352  0.35679559    -0.06900
C550        C  0.13688535  0.62504239  0.35246143    -0.18000
C551        C  0.11785713  0.60751018  0.38485273     0.10300
C552        C  0.13533990  0.60983032  0.42283609    -0.06800
C553        C  0.17227029  0.62933108  0.42642262    -0.18000
C554        C  0.19087547  0.64733028  0.39405026     0.10400
S555        S  0.07037005  0.58515102  0.37567047    -0.33000
S556        S  0.23830429  0.67051534  0.40195956    -0.33000
H557        H  0.25324413  0.66358775  0.36361194     0.28400
H558        H  0.05113235  0.60620193  0.40617579     0.28400
H559        H  0.12262087  0.62390812  0.32373207     0.18900
H560        H  0.18704805  0.63078311  0.45483539     0.19000
C561        C  0.26781536  0.58973780  0.20126218    -0.06900
C562        C  0.30565933  0.59245842  0.18343053    -0.18000
C563        C  0.32444058  0.55967421  0.16664838     0.10300
C564        C  0.30454351  0.52326063  0.16614014    -0.06800
C565        C  0.26666987  0.52063844  0.18385700    -0.18000
C566        C  0.24867169  0.55291982  0.20216031     0.10400
S567        S  0.37421286  0.56607705  0.14817743    -0.33000
S568        S  0.20223695  0.54445951  0.22739956    -0.33000
H569        H  0.21194941  0.56787222  0.26043486     0.28400
H570        H  0.38893277  0.53153507  0.16584670     0.28400
H571        H  0.32101208  0.62044200  0.18246469     0.18900
H572        H  0.25105432  0.49278023  0.18433171     0.19000
C573        C  0.03481772  0.79617787  0.32724653    -0.06900
C574        C  0.07134343  0.79725647  0.34669305    -0.18000
C575        C  0.10521084  0.78015988  0.32971354     0.10300
C576        C  0.10238294  0.76056046  0.29261444    -0.06800
C577        C  0.06615361  0.76016160  0.27273081    -0.18000
C578        C  0.03280039  0.77889980  0.28887846     0.10400
S579        S  0.15099164  0.78151466  0.35743447    -0.33000
S580        S  0.98939817  0.78147770  0.25784849    -0.33000
H581        H  0.97827114  0.81945159  0.27056147     0.28400
H582        H  0.13848876  0.80822990  0.38686770     0.28400
H583        H  0.07301207  0.81017782  0.37599316     0.18900
H584        H  0.06419449  0.74635884  0.24381321     0.19000
C585        C  0.03545515  0.79308115  0.66848811    -0.06900
C586        C  0.03112364  0.75582911  0.68641377    -0.18000
C587        C  0.06266544  0.73678858  0.70514917     0.10300
C588        C  0.10017567  0.75501281  0.70576671    -0.06800
C589        C  0.10462334  0.79231770  0.68798882    -0.18000
C590        C  0.07284597  0.81161816  0.66981769     0.10400
S591        S  0.05364922  0.69001819  0.72909489    -0.33000
S592        S  0.08205381  0.86001304  0.65010569    -0.33000
H593        H  0.04760270  0.87670909  0.66686224     0.28400
H594        H  0.01665278  0.68232268  0.71157150     0.28400
H595        H  0.00260046  0.74129143  0.68592589     0.18900
H596        H  0.13331374  0.80664705  0.68781156     0.19000
C597        C  0.17302388  0.65080085  0.62654939    -0.06900
C598        C  0.14169487  0.67064849  0.60783041    -0.18000
C599        C  0.11974106  0.65250307  0.57789192     0.10300
C600        C  0.12952207  0.61388490  0.56596324    -0.06800
C601        C  0.16102449  0.59412816  0.58419708    -0.18000
C602        C  0.18300920  0.61220272  0.61418080     0.10400
S603        S  0.07949460  0.67997609  0.55608796    -0.33000
S604        S  0.22423058  0.58504661  0.63450062    -0.33000
H605        H  0.24746119  0.61837742  0.64298138     0.28400
H606        H  0.05666688  0.64715257  0.54504883     0.28400
H607        H  0.13304978  0.69981738  0.61779956     0.18900
H608        H  0.16952370  0.56502427  0.57391942     0.19000
C609        C  0.33335351  0.73488559  0.69117888    -0.06900
C610        C  0.36016774  0.75556806  0.71501342    -0.18000
C611        C  0.39010929  0.77821648  0.69829515     0.10300
C612        C  0.39450126  0.77944232  0.65673798    -0.06800
C613        C  0.36873673  0.75790306  0.63265682    -0.18000
C614        C  0.33845397  0.73522687  0.64940962     0.10400
S615        S  0.42146159  0.80564633  0.73168982    -0.33000
S616        S  0.30853385  0.70634299  0.61598508    -0.33000
H617        H  0.30333819  0.67479625  0.64246512     0.28400
H618        H  0.42979157  0.83648686  0.70520452     0.28400
H619        H  0.35638352  0.75624877  0.74691303     0.18900
H620        H  0.37339601  0.75727808  0.60086541     0.19000
C621        C  0.60201227  0.73888193  0.69605612    -0.06900
C622        C  0.60681741  0.76058066  0.66081864    -0.18000
C623        C  0.57474967  0.77844919  0.64187808     0.10300
C624        C  0.53660817  0.77573207  0.65892505    -0.06800
C625        C  0.53183543  0.75348077  0.69399510    -0.18000
C626        C  0.56382320  0.73469965  0.71238249     0.10400
S627        S  0.58475825  0.80306528  0.59570724    -0.33000
S628        S  0.55507476  0.70483251  0.75584654    -0.33000
H629        H  0.51337246  0.70587227  0.75466883     0.28400
H630        H  0.55259530  0.78563051  0.57583539     0.28400
H631        H  0.63605305  0.76404177  0.64784399     0.18900
H632        H  0.50281215  0.75090369  0.70750360     0.19000
C633        C  0.77137230  0.65828571  0.86686229    -0.06900
C634        C  0.74856627  0.63199892  0.88939359    -0.18000
C635        C  0.76604942  0.60784173  0.91778014     0.10300
C636        C  0.80730869  0.60981899  0.92425195    -0.06800
C637        C  0.83010503  0.63679913  0.90266079    -0.18000
C638        C  0.81250136  0.66150824  0.87455843     0.10400
S639        S  0.73400255  0.57540420  0.94545978    -0.33000
S640        S  0.84352362  0.69808763  0.85133864    -0.33000
H641        H  0.81309321  0.72618355  0.84696657     0.28400
H642        H  0.76315786  0.54688911  0.95364833     0.28400
H643        H  0.71711681  0.62878766  0.88364308     0.18900
H644        H  0.86129352  0.64036532  0.90950328     0.19000
C645        C  0.68030118  0.81713122  0.80179333    -0.06900
C646        C  0.67295227  0.81663996  0.84304299    -0.18000
C647        C  0.65515245  0.84845683  0.86248311     0.10300
C648        C  0.64294205  0.88120352  0.84023871    -0.06800
C649        C  0.65137091  0.88244429  0.79944647    -0.18000
C650        C  0.67061169  0.85143503  0.78020584     0.10400
S651        S  0.65036088  0.84606983  0.91565211    -0.33000
S652        S  0.68192558  0.85819412  0.72843357    -0.33000
H653        H  0.72127616  0.84472231  0.73211736     0.28400
H654        H  0.65918003  0.88601092  0.92231934     0.28400
H655        H  0.68089012  0.79114390  0.86056865     0.18900
H656        H  0.64325546  0.90819949  0.78232776     0.19000
C657        C  0.83440566  0.75182668  0.70484713    -0.06900
C658        C  0.83996292  0.79232994  0.71193769    -0.18000
C659        C  0.86889597  0.81376275  0.69158896     0.10300
C660        C  0.89306495  0.79444439  0.66357569    -0.06800
C661        C  0.88787644  0.75410836  0.65655685    -0.18000
C662        C  0.85867582  0.73257831  0.67648232     0.10400
S663        S  0.87518385  0.86495537  0.70428304    -0.33000
S664        S  0.85259870  0.68107356  0.66425514    -0.33000
H665        H  0.87676988  0.68075187  0.63019894     0.28400
H666        H  0.88480010  0.87735075  0.66577924     0.28400
H667        H  0.82124934  0.80757145  0.73321095     0.18900
H668        H  0.90766806  0.73924285  0.63602021     0.19000
C669        C  0.62772291  0.52275098  0.83851324    -0.06900
C670        C  0.66855463  0.52074416  0.83026483    -0.18000
C671        C  0.68829962  0.55112027  0.81063749     0.10300
C672        C  0.66672913  0.58470777  0.79821757    -0.06800
C673        C  0.62576307  0.58667310  0.80705845    -0.18000
C674        C  0.60612301  0.55612006  0.82656544     0.10400
S675        S  0.74064396  0.54430436  0.80210740    -0.33000
S676        S  0.55318729  0.56043424  0.83293502    -0.33000
H677        H  0.54507536  0.52176543  0.82038168     0.28400
H678        H  0.75120183  0.57672175  0.82577434     0.28400
H679        H  0.68524646  0.49479107  0.83878576     0.18900
H680        H  0.60841333  0.61206790  0.79827452     0.19000
C681        C  0.63861454  0.02205618  0.84169804    -0.06900
C682        C  0.64890513  0.02048773  0.80130698    -0.18000
C683        C  0.67108662  0.05003925  0.78335019     0.10300
C684        C  0.68135797  0.08388172  0.80538890    -0.06800
C685        C  0.67145920  0.08524331  0.84610653    -0.18000
C686        C  0.65047496  0.05473732  0.86440932     0.10400
S687        S  0.68649992  0.04143065  0.73285968    -0.33000
S688        S  0.64207856  0.05792356  0.91701092    -0.33000
H689        H  0.60069954  0.05412213  0.91361086     0.28400
H690        H  0.72540624  0.05507823  0.73910160     0.28400
H691        H  0.64101892  0.99490585  0.78374733     0.18900
H692        H  0.67935759  0.11062885  0.86388619     0.19000
C693        C  0.65392794  0.31390122  0.79535979    -0.06900
C694        C  0.65834565  0.34969719  0.77569339    -0.18000
C695        C  0.63774741  0.38323415  0.78830937     0.10300
C696        C  0.61477056  0.38207281  0.82382033    -0.06800
C697        C  0.60920187  0.34573760  0.84251413    -0.18000
C698        C  0.62784410  0.31156941  0.82835066     0.10400
S699        S  0.64071516  0.42555455  0.75620075    -0.33000
S700        S  0.62006263  0.26604545  0.85489319    -0.33000
H701        H  0.58719819  0.27868587  0.87740311     0.28400
H702        H  0.60076883  0.43647872  0.76182171     0.28400
H703        H  0.67688761  0.35118273  0.74943223     0.18900
H704        H  0.59156137  0.34431348  0.86932216     0.19000
C705        C  0.54319091  0.10682707  0.66443831    -0.06900
C706        C  0.55750474  0.14132390  0.64674472    -0.18000
C707        C  0.58626206  0.16442310  0.66550785     0.10300
C708        C  0.60107916  0.15279979  0.70282877    -0.06800
C709        C  0.58657541  0.11830854  0.72047927    -0.18000
C710        C  0.55807081  0.09516641  0.70159572     0.10400
S711        S  0.60155240  0.20919431  0.64122546    -0.33000
S712        S  0.54127068  0.05136534  0.72663635    -0.33000
H713        H  0.53105593  0.03045085  0.69217179     0.28400
H714        H  0.61039117  0.22999463  0.67618993     0.28400
H715        H  0.54485745  0.15127987  0.61901971     0.18900
H716        H  0.59861860  0.10846945  0.74852638     0.19000
C717        C  0.40079029  0.10689533  0.67039565    -0.06900
C718        C  0.37864110  0.13311900  0.64742714    -0.18000
C719        C  0.34980407  0.15749193  0.66467424     0.10300
C720        C  0.34158947  0.15464947  0.70586672    -0.06800
C721        C  0.36426017  0.12851562  0.72879841    -0.18000
C722        C  0.39366735  0.10481568  0.71159973     0.10400
S723        S  0.32588621  0.19262196  0.63256457    -0.33000
S724        S  0.42083320  0.07212882  0.74380524    -0.33000
H725        H  0.43116731  0.04433963  0.71456284     0.28400
H726        H  0.32245234  0.22213957  0.66173938     0.28400
H727        H  0.38537163  0.13618571  0.61615141     0.18900
H728        H  0.35798489  0.12519666  0.76012622     0.19000
C729        C  0.30949314  0.86846117  0.84215537    -0.06900
C730        C  0.31334951  0.86433907  0.80100434    -0.18000
C731        C  0.29127188  0.83668315  0.77987076     0.10300
C732        C  0.26529137  0.81102820  0.80034845    -0.06800
C733        C  0.26183510  0.81494712  0.84183188    -0.18000
C734        C  0.28326187  0.84351558  0.86280358     0.10400
S735        S  0.29804212  0.83608642  0.72693991    -0.33000
S736        S  0.27371217  0.84844418  0.91517339    -0.33000
H737        H  0.31233758  0.85981641  0.92545945     0.28400
H738        H  0.25756473  0.84285463  0.71936687     0.28400
H739        H  0.33240490  0.88440169  0.78481702     0.18900
H740        H  0.24221110  0.79558450  0.85815147     0.19000
C741        C  0.26514528  0.07505886  0.80354609    -0.06900
C742        C  0.27990869  0.07756980  0.84258021    -0.18000
C743        C  0.29851351  0.04568005  0.86105272     0.10300
C744        C  0.30386467  0.01017790  0.83995401    -0.06800
C745        C  0.28885714  0.00746635  0.80108001    -0.18000
C746        C  0.26923771  0.03899393  0.78296858     0.10400
S747        S  0.31317486  0.05198496  0.91197019    -0.33000
S748        S  0.24956426  0.03064114  0.73407782    -0.33000
H749        H  0.21354510  0.05034972  0.74169373     0.28400
H750        H  0.29927691  0.01488735  0.92419809     0.28400
H751        H  0.27719467  0.10481927  0.85914393     0.18900
H752        H  0.29212908  0.98025372  0.78452943     0.19000
C753        C  0.18043813  0.25406354  0.37331520    -0.06900
C754        C  0.16831010  0.29391138  0.37155615    -0.18000
C755        C  0.14962321  0.31259576  0.40357906     0.10300
C756        C  0.14280981  0.29141697  0.43874975    -0.06800
C757        C  0.15596265  0.25209032  0.44099416    -0.18000
C758        C  0.17503501  0.23348502  0.40926194     0.10400
S759        S  0.13696087  0.36383127  0.39838929    -0.33000
S760        S  0.19205128  0.18382423  0.41733380    -0.33000
H761        H  0.22930608  0.19032805  0.39966282     0.28400
H762        H  0.09593123  0.35651271  0.40036075     0.28400
H763        H  0.17240475  0.31069417  0.34459943     0.18900
H764        H  0.15163010  0.23549484  0.46805522     0.19000
C765        C  0.13824528  0.29089010  0.58103331    -0.06900
C766        C  0.16857976  0.30995288  0.60185000    -0.18000
C767        C  0.19043825  0.28993922  0.63094281     0.10300
C768        C  0.18144999  0.25021811  0.63946404    -0.06800
C769        C  0.15134658  0.23123187  0.61824590    -0.18000
C770        C  0.13000870  0.25099832  0.58888362     0.10400
S771        S  0.23115024  0.31441733  0.65541590    -0.33000
S772        S  0.09237629  0.22505750  0.56119155    -0.33000
H773        H  0.10141663  0.18718111  0.57544750     0.28400
H774        H  0.22810196  0.35035152  0.63499943     0.28400
H775        H  0.17615496  0.33992909  0.59405393     0.18900
H776        H  0.14359099  0.20125294  0.62563847     0.19000
C777        C  0.03993350  0.10138940  0.67401130    -0.06900
C778        C  0.07533228  0.10069934  0.65215403    -0.18000
C779        C  0.11008297  0.11742804  0.66730563     0.10300
C780        C  0.10926665  0.13591535  0.70492045    -0.06800
C781        C  0.07453314  0.13530632  0.72745595    -0.18000
C782        C  0.04035014  0.11707433  0.71312630     0.10400
S783        S  0.15461677  0.11648909  0.63736915    -0.33000
S784        S  0.99912687  0.11349651  0.74715573    -0.33000
H785        H  0.98701650  0.07614896  0.73370808     0.28400
H786        H  0.13630216  0.10612368  0.60144439     0.28400
H787        H  0.07546054  0.08828771  0.62258202     0.18900
H788        H  0.07436346  0.14825833  0.75684965     0.19000
C789        C  0.89772077  0.11818085  0.66510490    -0.06900
C790        C  0.89964996  0.15814763  0.67601758    -0.18000
C791        C  0.86895985  0.17654004  0.69721354     0.10300
C792        C  0.83449163  0.15493741  0.70703865    -0.06800
C793        C  0.83303894  0.11466456  0.69634165    -0.18000
C794        C  0.86420842  0.09611725  0.67619988     0.10400
S795        S  0.87643920  0.22712752  0.71140319    -0.33000
S796        S  0.86016781  0.04387914  0.66745282    -0.33000
H797        H  0.89932388  0.03535085  0.67893509     0.28400
H798        H  0.86355421  0.22127028  0.75066838     0.28400
H799        H  0.92592313  0.17505843  0.66877327     0.18900
H800        H  0.80730163  0.09704467  0.70367890     0.19000
C801        C  0.33573905  0.15766308  0.30586552    -0.06900
C802        C  0.35876831  0.13194336  0.28269956    -0.18000
C803        C  0.38722805  0.10757470  0.29987705     0.10300
C804        C  0.39332959  0.10876858  0.34121337    -0.06800
C805        C  0.37107706  0.13497498  0.36445447    -0.18000
C806        C  0.34283021  0.15985216  0.34721753     0.10400
S807        S  0.41521412  0.07555899  0.26742009    -0.33000
S808        S  0.31843926  0.19500114  0.37929832    -0.33000
H809        H  0.31456661  0.22434027  0.35017112     0.28400
H810        H  0.42165994  0.04592742  0.29575762     0.28400
H811        H  0.35343698  0.12940336  0.25114289     0.18900
H812        H  0.37740061  0.13773796  0.39581068     0.19000
C813        C  0.60071220  0.15725377  0.31209188    -0.06900
C814        C  0.60675616  0.12394100  0.33599174    -0.18000
C815        C  0.57492153  0.10212893  0.35087337     0.10300
C816        C  0.53568358  0.11470476  0.34303600    -0.06800
C817        C  0.53016252  0.14880898  0.31956131    -0.18000
C818        C  0.56200492  0.16999832  0.30417710     0.10400
S819        S  0.58695908  0.05770141  0.37731819    -0.33000
S820        S  0.55134550  0.21352841  0.27552823    -0.33000
H821        H  0.58554957  0.23427472  0.28694134     0.28400
H822        H  0.56169117  0.03405075  0.35422772     0.28400
H823        H  0.63668218  0.11349198  0.34134517     0.18900
H824        H  0.50068032  0.15971255  0.31311599     0.19000
C825        C  0.83267972  0.15006269  0.29343829    -0.06900
C826        C  0.83111948  0.11010300  0.30499076    -0.18000
C827        C  0.86230011  0.09216514  0.32551690     0.10300
C828        C  0.89564584  0.11473968  0.33609943    -0.06800
C829        C  0.89717569  0.15453566  0.32463904    -0.18000
C830        C  0.86698122  0.17203679  0.30273313     0.10400
S831        S  0.85822860  0.04031180  0.33586830    -0.33000
S832        S  0.87485003  0.22231645  0.28761667    -0.33000
H833        H  0.86161903  0.21583444  0.24861941     0.28400
H834        H  0.89711355  0.03137294  0.32345528     0.28400
H835        H  0.80521601  0.09248913  0.29832408     0.18900
H836        H  0.92289100  0.17220295  0.33196393     0.19000
C837        C  0.62738572  0.38064728  0.16893228    -0.06900
C838        C  0.66030126  0.38608396  0.19431248    -0.18000
C839        C  0.67564261  0.35563826  0.21746451     0.10300
C840        C  0.65856481  0.31794678  0.21520089    -0.06800
C841        C  0.62515368  0.31244788  0.19084300    -0.18000
C842        C  0.60994333  0.34280497  0.16731410     0.10400
S843        S  0.71647091  0.36722710  0.24986739    -0.33000
S844        S  0.56931128  0.33035374  0.13523823    -0.33000
H845        H  0.59049437  0.34053770  0.10074628     0.28400
H846        H  0.70440731  0.34164575  0.28034835     0.28400
H847        H  0.67450231  0.41456155  0.19664533     0.18900
H848        H  0.61200603  0.28347068  0.18815611     0.19000
C849        C  0.81223943  0.62120153  0.06644583    -0.06900
C850        C  0.81965617  0.60422790  0.10349124    -0.18000
C851        C  0.80386985  0.62045545  0.13836385     0.10300
C852        C  0.77887549  0.65406407  0.13628374    -0.06800
C853        C  0.77187100  0.67147203  0.09959945    -0.18000
C854        C  0.78924528  0.65655388  0.06503965     0.10400
S855        S  0.81383469  0.59571161  0.18463175    -0.33000
S856        S  0.78169796  0.68571641  0.02106419    -0.33000
H857        H  0.82194728  0.68445626  0.00982405     0.28400
H858        H  0.84518181  0.57187053  0.17085584     0.28400
H859        H  0.83696584  0.57740692  0.10513593     0.18900
H860        H  0.75347432  0.69765576  0.09801604     0.19000
C861        C  0.63044136  0.52223852  0.15600570    -0.06900
C862        C  0.60722802  0.54619407  0.18073117    -0.18000
C863        C  0.62449056  0.57595591  0.20374777     0.10300
C864        C  0.66599733  0.58260725  0.20152331    -0.06800
C865        C  0.68904401  0.55853943  0.17656748    -0.18000
C866        C  0.67175448  0.52873782  0.15380057     0.10400
S867        S  0.59212550  0.60295679  0.23677673    -0.33000
S868        S  0.70396732  0.49988852  0.12223265    -0.33000
H869        H  0.67485389  0.49019683  0.09410059     0.28400
H870        H  0.62052651  0.60751210  0.26691567     0.28400
H871        H  0.57579565  0.54021292  0.18386198     0.18900
H872        H  0.72060783  0.56385825  0.17358749     0.19000
C873        C  0.83323801  0.74763208  0.30017292    -0.06900
C874        C  0.85971360  0.72437358  0.32207180    -0.18000
C875        C  0.88991131  0.74148252  0.34458727     0.10300
C876        C  0.89369879  0.78289810  0.34599970    -0.06800
C877        C  0.86738104  0.80624669  0.32434344    -0.18000
C878        C  0.83799962  0.78922743  0.30072327     0.10400
S879        S  0.92308613  0.70887954  0.37063424    -0.33000
S880        S  0.80941411  0.82240996  0.27029388    -0.33000
H881        H  0.80745124  0.79661918  0.23763679     0.28400
H882        H  0.93277886  0.73568723  0.40091325     0.28400
H883        H  0.85630629  0.69265215  0.32259501     0.18900
H884        H  0.87156715  0.83788751  0.32355014     0.19000
C885        C  0.80402579  0.28806456  0.93109843    -0.06900
C886        C  0.82646450  0.26130019  0.90865056    -0.18000
C887        C  0.80920583  0.24006265  0.87754603     0.10300
C888        C  0.76861234  0.24590730  0.86851783    -0.06800
C889        C  0.74633362  0.27270050  0.89123385    -0.18000
C890        C  0.76368805  0.29409317  0.92195881     0.10400
S891        S  0.84013245  0.20501388  0.85157022    -0.33000
S892        S  0.73310786  0.32944941  0.94793790    -0.33000
H893        H  0.76412728  0.35542290  0.95742580     0.28400
H894        H  0.80945478  0.17806888  0.84378589     0.28400
H895        H  0.85714751  0.25575503  0.91641978     0.18900
H896        H  0.71558361  0.27844613  0.88384685     0.19000
C897        C  0.76283005  0.24851744  0.13785047    -0.06900
C898        C  0.80458085  0.24861680  0.13436625    -0.18000
C899        C  0.82395740  0.26742165  0.10293760     0.10300
C900        C  0.80147631  0.28720475  0.07406586    -0.06800
C901        C  0.75991768  0.28724117  0.07722502    -0.18000
C902        C  0.74028355  0.26869280  0.10883432     0.10400
S903        S  0.87726437  0.26378199  0.10053554    -0.33000
S904        S  0.68681597  0.27278813  0.11194883    -0.33000
H905        H  0.68128109  0.29721307  0.07882234     0.28400
H906        H  0.87903749  0.25801217  0.05929717     0.28400
H907        H  0.82254073  0.23373733  0.15632041     0.18900
H908        H  0.74279210  0.30208158  0.05461596     0.19000
C909        C  0.63449865  0.01914975  0.16743162    -0.06900
C910        C  0.65259507  0.01649426  0.20495823    -0.18000
C911        C  0.67186097  0.04846739  0.22241302     0.10300
C912        C  0.67246410  0.08514154  0.20272810    -0.06800
C913        C  0.65431700  0.08793204  0.16525081    -0.18000
C914        C  0.63535455  0.05575224  0.14760087     0.10400
S915        S  0.69581718  0.03966062  0.26927672    -0.33000
S916        S  0.61406826  0.06342621  0.09939833    -0.33000
H917        H  0.57523219  0.05606867  0.11288296     0.28400
H918        H  0.73064230  0.06007737  0.25894730     0.28400
H919        H  0.65245087  0.98885058  0.22092571     0.18900
H920        H  0.65393724  0.11580143  0.14969298     0.19000
C921        C  0.63662442  0.87666427  0.16603757    -0.06900
C922        C  0.66557480  0.85608736  0.14444376    -0.18000
C923        C  0.68824450  0.82632910  0.16216329     0.10300
C924        C  0.68098598  0.81582034  0.20213308    -0.06800
C925        C  0.65277826  0.83742308  0.22394562    -0.18000
C926        C  0.63060388  0.86749107  0.20639781     0.10400
S927        S  0.72731634  0.80441552  0.13283093    -0.33000
S928        S  0.59468204  0.89282605  0.23703860    -0.33000
H929        H  0.56871353  0.90293700  0.20614574     0.20800
H930        H  0.75306876  0.79832452  0.16500434     0.28400
H931        H  0.67187280  0.86454028  0.11412280     0.18900
H932        H  0.64645714  0.82964378  0.25444480     0.19000
C933        C  0.16575964  0.66210646  0.12484345    -0.06900
C934        C  0.12406181  0.65926269  0.12232531    -0.18000
C935        C  0.10549356  0.63620062  0.09327394     0.10300
C936        C  0.12869027  0.61569888  0.06521875    -0.06800
C937        C  0.17015583  0.61893439  0.06705339    -0.18000
C938        C  0.18903384  0.64129405  0.09648636     0.10400
S939        S  0.05214282  0.63617127  0.09179978    -0.33000
S940        S  0.24273042  0.64211512  0.09670931    -0.33000
H941        H  0.24871668  0.60993518  0.07102710     0.28400
H942        H  0.04921701  0.59490462  0.09093140     0.28400
H943        H  0.10553751  0.67461052  0.14365870     0.18900
H944        H  0.18790226  0.60418375  0.04466036     0.19000
C945        C  0.16269111  0.65475881  0.86089807    -0.06900
C946        C  0.18612706  0.63061585  0.88513127    -0.18000
C947        C  0.16938707  0.60865615  0.91573088     0.10300
C948        C  0.12815217  0.61062804  0.92271977    -0.06800
C949        C  0.10449445  0.63476512  0.89885685    -0.18000
C950        C  0.12132735  0.65730715  0.86844365     0.10400
S951        S  0.20234470  0.57859260  0.94499528    -0.33000
S952        S  0.08872382  0.69012153  0.84192503    -0.33000
H953        H  0.11710108  0.72012986  0.83734968     0.28400
H954        H  0.17399865  0.55006768  0.95539977     0.28400
H955        H  0.21764383  0.62757779  0.87938366     0.18900
H956        H  0.07310451  0.63769928  0.90533004     0.19000
C957        C  0.80150212  0.60786450  0.56932464    -0.06900
C958        C  0.78527359  0.64595982  0.56577063    -0.18000
C959        C  0.76424586  0.66383978  0.59668752     0.10300
C960        C  0.76017217  0.64401524  0.63324164    -0.06800
C961        C  0.77610299  0.60571909  0.63668169    -0.18000
C962        C  0.79675535  0.58768281  0.60551303     0.10400
S963        S  0.74263579  0.71139220  0.58670046    -0.33000
S964        S  0.81492528  0.53849064  0.61351860    -0.33000
H965        H  0.85486728  0.54993001  0.60981052     0.28400
H966        H  0.70636221  0.70263912  0.60547789     0.28400
H967        H  0.78827755  0.66193090  0.53816161     0.18900
H968        H  0.77361394  0.58985377  0.66438484     0.19000
C969        C  0.80376208  0.60270770  0.42643188    -0.06900
C970        C  0.77501657  0.58140229  0.40555665    -0.18000
C971        C  0.75214875  0.59944867  0.37602252     0.10300
C972        C  0.75814841  0.63976403  0.36709080    -0.06800
C973        C  0.78714195  0.66078356  0.38806151    -0.18000
C974        C  0.81007527  0.64268311  0.41719638     0.10400
S975        S  0.71475750  0.56993112  0.35211054    -0.33000
S976        S  0.84684952  0.67226050  0.44202267    -0.33000
H977        H  0.87282593  0.64098388  0.45056437     0.28400
H978        H  0.68786101  0.60114189  0.34639177     0.28400
H979        H  0.76904267  0.55110277  0.41360391     0.18900
H980        H  0.79313813  0.69125555  0.38069100     0.19000
C981        C  0.30301895  0.88624076  0.16152451    -0.06900
C982        C  0.28763644  0.88866236  0.20035224    -0.18000
C983        C  0.26571520  0.85807683  0.21715121     0.10300
C984        C  0.26047202  0.82276804  0.19571496    -0.06800
C985        C  0.27564470  0.82046652  0.15668159    -0.18000
C986        C  0.29603099  0.85181596  0.13922824     0.10400
S987        S  0.24425114  0.86688602  0.26533753    -0.33000
S988        S  0.31059949  0.84646361  0.08807810    -0.33000
H989        H  0.29662458  0.88392937  0.07711150     0.28400
H990        H  0.20776400  0.84911012  0.25595709     0.28400
H991        H  0.29198982  0.91514208  0.21777823     0.18900
H992        H  0.27184403  0.79386502  0.13933577     0.19000
C993        C  0.31124300  0.02752788  0.16352465    -0.06900
C994        C  0.28805505  0.05233253  0.13992508    -0.18000
C995        C  0.26375576  0.08139705  0.15701066     0.10300
C996        C  0.26378485  0.08708637  0.19872715    -0.06800
C997        C  0.28704586  0.06196287  0.22212990    -0.18000
C998        C  0.31046561  0.03241400  0.20511737     0.10400
S999        S  0.23160265  0.10828194  0.12407179    -0.33000
S1000       S  0.33839257  0.00132544  0.23825096    -0.33000
H1001       H  0.36904534  0.99256345  0.21122823     0.28400
H1002       H  0.19977488  0.11045845  0.15110386     0.28400
H1003       H  0.28680787  0.04729916  0.10822468     0.18900
H1004       H  0.28807298  0.06603707  0.25396794     0.19000
C1005       C  0.15913371  0.22659842  0.87086173    -0.06900
C1006       C  0.12265192  0.24650734  0.86612492    -0.18000
C1007       C  0.10418653  0.26641185  0.89770408     0.10300
C1008       C  0.12339230  0.26852462  0.93482695    -0.06800
C1009       C  0.15871724  0.24660902  0.93989069    -0.18000
C1010       C  0.17588359  0.22491703  0.90898960     0.10400
S1011       S  0.05573964  0.28699896  0.88880412    -0.33000
S1012       S  0.21843426  0.19484143  0.92055788    -0.33000
H1013       H  0.20845986  0.16439122  0.89404347     0.28400
H1014       H  0.03985641  0.27411944  0.92514452     0.28400
H1015       H  0.10854169  0.24726237  0.83733831     0.18900
H1016       H  0.17347009  0.24613625  0.96834296     0.19000
C1017       C  0.16736591  0.25014892  0.13864529    -0.06900
C1018       C  0.12610102  0.24604845  0.13346071    -0.18000
C1019       C  0.10600317  0.26551960  0.10298272     0.10300
C1020       C  0.12736102  0.28953425  0.07654889    -0.06800
C1021       C  0.16830262  0.29419641  0.08175136    -0.18000
C1022       C  0.18854717  0.27535674  0.11267101     0.10400
S1023       S  0.05362020  0.25655211  0.09766662    -0.33000
S1024       S  0.24093661  0.28508698  0.11875287    -0.33000
H1025       H  0.24540896  0.31116864  0.08675273     0.28400
H1026       H  0.04407084  0.29538482  0.08705662     0.28400
H1027       H  0.10920983  0.22748316  0.15337780     0.18900
H1028       H  0.18456575  0.31207935  0.06074277     0.19000
C1029       C  0.30046531  0.37800524  0.83731226    -0.06900
C1030       C  0.26268020  0.37946772  0.81950605    -0.18000
C1031       C  0.24604744  0.34668896  0.80071374     0.10300
C1032       C  0.26670734  0.31044479  0.80077344    -0.06800
C1033       C  0.30463143  0.30908343  0.81834698    -0.18000
C1034       C  0.32190381  0.34229123  0.83577600     0.10400
S1035       S  0.19905886  0.35383196  0.77639038    -0.33000
S1036       S  0.37194893  0.33724163  0.85369203    -0.33000
H1037       H  0.38520460  0.37256735  0.83645329     0.28400
H1038       H  0.20997454  0.33244277  0.74231186     0.28400
H1039       H  0.24589934  0.40672785  0.81965133     0.18900
H1040       H  0.32133610  0.28179206  0.81858076     0.19000
C1041       C  0.30086319  0.52018177  0.83405205    -0.06900
C1042       C  0.25960560  0.52137297  0.82876780    -0.18000
C1043       C  0.24145206  0.55023517  0.80566071     0.10300
C1044       C  0.26494376  0.57961280  0.78735771    -0.06800
C1045       C  0.30653435  0.57785191  0.79217561    -0.18000
C1046       C  0.32454803  0.54888233  0.81553090     0.10400
S1047       S  0.18822848  0.54764325  0.80167979    -0.33000
S1048       S  0.37780556  0.54893547  0.81913193    -0.33000
H1049       H  0.37774142  0.54903499  0.86078336     0.28400
H1050       H  0.18874961  0.54943009  0.76001103     0.28400
H1051       H  0.24124537  0.49883917  0.84220756     0.18900
H1052       H  0.32530601  0.59991671  0.77858516     0.19000
C1053       C  0.39855356  0.78198821  0.33675430    -0.06900
C1054       C  0.40173525  0.76902460  0.29715896    -0.18000
C1055       C  0.37093309  0.74914032  0.27819779     0.10300
C1056       C  0.33462357  0.74341735  0.29828042    -0.06800
C1057       C  0.33135390  0.75645787  0.33797336    -0.18000
C1058       C  0.36295573  0.77482164  0.35752566     0.10400
S1059       S  0.38078980  0.73081421  0.22896835    -0.33000
S1060       S  0.35653151  0.78645448  0.40924354    -0.33000
H1061       H  0.39397057  0.77186100  0.42027020     0.28400
H1062       H  0.36245645  0.69420373  0.23566118     0.28400
H1063       H  0.42905238  0.77363277  0.28079828     0.18900
H1064       H  0.30388613  0.75235059  0.35419244     0.19000
C1065       C  0.54096072  0.78376408  0.33866220    -0.06900
C1066       C  0.54510202  0.78641358  0.29736469    -0.18000
C1067       C  0.57330812  0.76406086  0.27673336     0.10300
C1068       C  0.59957168  0.73930620  0.29793825    -0.06800
C1069       C  0.59463367  0.73615322  0.33934490    -0.18000
C1070       C  0.56561755  0.75774949  0.35972781     0.10400
S1071       S  0.57327102  0.76824625  0.22355221    -0.33000
S1072       S  0.55948599  0.74851327  0.41194387    -0.33000
H1073       H  0.55280222  0.78802159  0.42238013     0.28400
H1074       H  0.57211750  0.72722625  0.21755505     0.28400
H1075       H  0.52476535  0.80480307  0.28075669     0.18900
H1076       H  0.61389522  0.71696534  0.35625907     0.19000
C1077       C  0.79688019  0.29066359  0.57056856    -0.06900
C1078       C  0.77473771  0.25568197  0.56577661    -0.18000
C1079       C  0.75299618  0.23917594  0.59691509     0.10300
C1080       C  0.75418162  0.25692170  0.63467013    -0.06800
C1081       C  0.77523891  0.29243096  0.63928875    -0.18000
C1082       C  0.79582706  0.30973341  0.60779451     0.10400
S1083       S  0.72382088  0.19601358  0.58617487    -0.33000
S1084       S  0.81869626  0.35668446  0.61704677    -0.33000
H1085       H  0.80192696  0.37404694  0.58322571     0.28400
H1086       H  0.69244544  0.20630174  0.61181092     0.28400
H1087       H  0.77414894  0.24076758  0.53737604     0.18900
H1088       H  0.77633987  0.30673642  0.66799716     0.19000
C1089       C  0.81100421  0.29087789  0.42846307    -0.06900
C1090       C  0.81563471  0.25038669  0.42204269    -0.18000
C1091       C  0.79317207  0.23037624  0.39359888     0.10300
C1092       C  0.76521853  0.25161228  0.37064427    -0.06800
C1093       C  0.76112466  0.29243078  0.37696106    -0.18000
C1094       C  0.78355812  0.31216338  0.40553442     0.10400
S1095       S  0.80087486  0.17793611  0.38780980    -0.33000
S1096       S  0.77378296  0.36385481  0.41322072    -0.33000
H1097       H  0.81244802  0.37377964  0.42484250     0.28400
H1098       H  0.83383356  0.17438593  0.41300960     0.28400
H1099       H  0.83572286  0.23408610  0.44091948     0.18900
H1100       H  0.74021136  0.30923632  0.35944017     0.19000
loop_ 
_geom_bond_atom_site_label_1 
_geom_bond_atom_site_label_2 
_geom_bond_distance 
_geom_bond_site_symmetry_2 
_ccdc_geom_bond_type 
C1            N2   1.347       .  A
C1            N6   1.359       .  A
C1         C1089   1.463       .  S
N2            C3   1.349       .  A
C3            N4   1.365       .  A
C3         C1077   1.491       .  S
N4            C5   1.367       .  A
C5            N6   1.363       .  A
C5          C512   1.489       .  S
C7            N8   1.361       .  A
C7           N12   1.345       .  A
C7         C1065   1.469       .  S
N8            C9   1.365       .  A
C9           N10   1.368       .  A
C9          C479   1.491       .  S
N10          C11   1.365       .  A
C11          N12   1.348       .  A
C11        C1053   1.484       .  S
C13          N14   1.363       .  A
C13          N18   1.349       .  A
C13        C1029   1.488       .  S
N14          C15   1.365       .  A
C15          N16   1.365       .  A
C15         C446   1.491       .  S
N16          C17   1.361       .  A
C17          N18   1.349       .  A
C17        C1041   1.474       .  S
C19          N20   1.359       .  A
C19          N24   1.348       .  A
C19        C1020   1.470       .  S
N20          C21   1.364   1_554  A
C21          N22   1.368       .  A
C21          C66   1.493       .  S
N22          C23   1.367       .  A
C23          N24   1.352   1_556  A
C23        C1008   1.496       .  S
C25          N26   1.345       .  A
C25          N30   1.362       .  A
C25         C993   1.470   1_565  S
N26          C27   1.347       .  A
C27          N28   1.362       .  A
C27         C981   1.482       .  S
N28          C29   1.365       .  A
C29          N30   1.367       .  A
C29         C103   1.490       .  S
C31          N32   1.348       .  A
C31          N36   1.360       .  A
C31         C969   1.468       .  S
N32          C33   1.351       .  A
C33          N34   1.361       .  A
C33         C957   1.485       .  S
N34          C35   1.364       .  A
C35          N36   1.365       .  A
C35         C513   1.487       .  S
C37          N38   1.365       .  A
C37          N42   1.349   1_554  A
C37         C936   1.481       .  S
N38          C39   1.369   1_554  A
C39          N40   1.364       .  A
C39          C63   1.493       .  S
N40          C41   1.360       .  A
C41          N42   1.348       .  A
C41         C948   1.466       .  S
N43          C48   1.355   1_556  A
N43          C47   1.356   1_656  A
N43          H75   1.039       .  S
N44          C51   1.357       .  A
N44          C52   1.356       .  A
N45          C50   1.357   1_556  A
N45          C49   1.356   1_656  A
N45          H76   1.039       .  S
N46          C53   1.356   1_554  A
N46          C54   1.355   1_554  A
C47          C55   1.388   1_455  A
C47          C63   1.421   1_554  A
C48          C64   1.420   1_554  A
C48          C56   1.387       .  A
C49          C57   1.389   1_455  A
C49          C66   1.424   1_554  A
C50          C65   1.422       .  A
C50          C58   1.387       .  A
C51          C63   1.424       .  A
C51          C59   1.387       .  A
C52          C66   1.424       .  A
C52          C60   1.387       .  A
C53          C61   1.387       .  A
C53          C64   1.422       .  A
C54          C62   1.387       .  A
C54          C65   1.422   1_556  A
C55          C56   1.375       .  A
C55          H67   1.082   1_655  S
C56          H68   1.082       .  S
C57          C58   1.376       .  A
C57          H69   1.082   1_655  S
C58          H70   1.082       .  S
C59          C60   1.379       .  A
C59          H71   1.082       .  S
C60          H72   1.082       .  S
C61          C62   1.376       .  A
C61          H73   1.082       .  S
C62          H74   1.082       .  S
C64         C419   1.489       .  S
C65         C121   1.491       .  S
C77          N78   1.348       .  A
C77          N82   1.362       .  A
C77         C921   1.470       .  S
N78          C79   1.352       .  A
C79          N80   1.362       .  A
C79         C909   1.490   1_565  S
N80          C81   1.364       .  A
C81          N82   1.365       .  A
C81         C106   1.491       .  S
N83          C88   1.358   1_554  A
N83          C87   1.357       .  A
N83         H115   1.031       .  S
N84          C91   1.355       .  A
N84          C92   1.355       .  A
N85          C90   1.356   1_554  A
N85          C89   1.358       .  A
N85         H116   1.033       .  S
N86          C93   1.355       .  A
N86          C94   1.353       .  A
C87          C95   1.388       .  A
C87         C103   1.425       .  A
C88         C104   1.425       .  A
C88          C96   1.388       .  A
C89          C97   1.387       .  A
C89         C106   1.422       .  A
C90         C105   1.423       .  A
C90          C98   1.389       .  A
C91         C103   1.423       .  A
C91          C99   1.387       .  A
C92         C106   1.421       .  A
C92         C100   1.387       .  A
C93         C101   1.387       .  A
C93         C104   1.423       .  A
C94         C102   1.388       .  A
C94         C105   1.422       .  A
C95          C96   1.375   1_554  A
C95         H107   1.082       .  S
C96         H108   1.083       .  S
C97          C98   1.375   1_554  A
C97         H109   1.082       .  S
C98         H110   1.082       .  S
C99         C100   1.375       .  A
C99         H111   1.082       .  S
C100        H112   1.083       .  S
C101        C102   1.377       .  A
C101        H113   1.082       .  S
C102        H114   1.082       .  S
C104        C227   1.492       .  S
C105        C385   1.484       .  S
C117        N118   1.349   1_556  A
C117        N122   1.359       .  A
C117        C885   1.466       .  S
N118        C119   1.350       .  A
C119        N120   1.365       .  A
C119        C900   1.477       .  S
N120        C121   1.367       .  A
C121        N122   1.363   1_554  A
O123        C138   1.271       .  A
O123       Al131   1.955       .  S
C124        C972   1.479       .  S
C124        O134   1.269       .  A
C124        O125   1.254       .  A
O125       Al127   1.876       .  S
O126        C128   1.274       .  A
O126       Al127   1.960       .  S
Al127       O135   1.969       .  S
Al127       O137   1.873       .  S
Al127       O136   1.764       .  S
C128        C864   1.482       .  S
C128        O141   1.257       .  A
O129        C139   1.272       .  A
O129       Al131   1.961       .  S
O130        C143   1.272       .  A
O130       Al140   1.953       .  S
Al131       O144   1.883       .  S
Al131       O141   1.868       .  S
Al131       O136   1.767       .  S
O132        C139   1.260       .  A
O132       Al140   1.875       .  S
O133        C142   1.256       .  A
O133       Al140   1.857       .  S
O134       Al140   1.948       .  S
O135        C142   1.277       .  A
O136       Al140   1.766       .  S
O137        C138   1.255       .  A
C138        C852   1.477       .  S
C139       C1068   1.488       .  S
C142        C873   1.483       .  S
C143        C924   1.483       .  S
C143        O144   1.260       .  A
C145        N146   1.351       .  A
C145        N150   1.365       .  A
C145        C837   1.498       .  S
N146        C147   1.347       .  A
C147        N148   1.361       .  A
C147        C861   1.470       .  S
N148        C149   1.365       .  A
C149        N150   1.367       .  A
C149        C444   1.493       .  S
O151        C166   1.258       .  A
O151       Al159   1.876       .  S
C152        C825   1.485       .  S
C152        O162   1.259       .  A
C152        O153   1.271       .  A
O153       Al155   1.948       .  S
O154        C156   1.259       .  A
O154       Al155   1.875       .  S
Al155       O163   1.879       .  S
Al155       O165   1.948       .  S
Al155       O164   1.764       .  S
C156        C897   1.492       .  S
C156        O169   1.272       .  A
O157        C167   1.260       .  A
O157       Al159   1.883       .  S
O158        C171   1.257       .  A
O158       Al168   1.866       .  S
Al159       O172   1.948       .  S
Al159       O169   1.958       .  S
Al159       O164   1.763       .  S
O160        C167   1.268       .  A
O160       Al168   1.943       .  S
O161        C170   1.269       .  A
O161       Al168   1.949       .  S
O162       Al168   1.874       .  S
O163        C170   1.259       .  A
O164       Al168   1.767       .  S
O165        C166   1.270       .  A
C166        C840   1.481       .  S
C167        C912   1.487       .  S
C170       C1092   1.484       .  S
C171        C813   1.465       .  S
C171        O172   1.272       .  A
C173        N174   1.362       .  A
C173        N178   1.347       .  A
C173        C816   1.490       .  S
N174        C175   1.365       .  A
C175        N176   1.365       .  A
C175        C478   1.486       .  S
N176        C177   1.360       .  A
C177        N178   1.344       .  A
C177        C804   1.464       .  S
C179        N180   1.364       .  A
C179        N184   1.348       .  A
C179        C789   1.477       .  S
N180        C181   1.365       .  A
C181        N182   1.364   1_655  A
C181        C208   1.490       .  S
N182        C183   1.363       .  A
C183        N184   1.348   1_455  A
C183        C777   1.482       .  S
N185        C190   1.357       .  A
N185        C189   1.356       .  A
N185        H217   1.023       .  S
N186        C193   1.353       .  A
N186        C194   1.354       .  A
N187        C192   1.357       .  A
N187        C191   1.359       .  A
N187        H218   1.029   1_545  S
N188        C195   1.355       .  A
N188        C196   1.354       .  A
C189        C197   1.388       .  A
C189        C205   1.424       .  A
C190        C206   1.426       .  A
C190        C198   1.388       .  A
C191        C199   1.387       .  A
C191        C208   1.425       .  A
C192        C207   1.425       .  A
C192        C200   1.389       .  A
C193        C205   1.421       .  A
C193        C201   1.388       .  A
C194        C208   1.419   1_565  A
C194        C202   1.387       .  A
C195        C203   1.387       .  A
C195        C206   1.424       .  A
C196        C204   1.387       .  A
C196        C207   1.422   1_565  A
C197        C198   1.378       .  A
C197        H209   1.082       .  S
C198        H210   1.082       .  S
C199        C200   1.379       .  A
C199        H211   1.082       .  S
C200        H212   1.082       .  S
C201        C202   1.372       .  A
C201        H213   1.082       .  S
C202        H214   1.082       .  S
C203        C204   1.375       .  A
C203        H215   1.082       .  S
C204        H216   1.082       .  S
C205        C381   1.483       .  S
C206        C339   1.491       .  S
C207        C393   1.487       .  S
C219        N220   1.361       .  A
C219        N224   1.346       .  A
C219        C765   1.466       .  S
N220        C221   1.366       .  A
C221        N222   1.365       .  A
C221        C511   1.488       .  S
N222        C223   1.362       .  A
C223        N224   1.349       .  A
C223        C756   1.481       .  S
C225        N226   1.362       .  A
C225        N230   1.348       .  A
C225        C729   1.470       .  S
N226        C227   1.366       .  A
C227        N228   1.366       .  A
N228        C229   1.364       .  A
C229        N230   1.349       .  A
C229        C744   1.485   1_565  S
O231        C246   1.261       .  A
O231       Al239   1.876       .  S
C232        C768   1.474       .  S
C232        O242   1.255       .  A
C232        O233   1.271       .  A
O233       Al235   1.953       .  S
O234        C236   1.255       .  A
O234       Al235   1.868       .  S
Al235       O243   1.868       .  S
Al235       O245   1.965       .  S
Al235       O244   1.767       .  S
C236        C720   1.484       .  S
C236        O249   1.273       .  A
O237        C247   1.260       .  A
O237       Al239   1.876       .  S
O238        C251   1.258       .  A
O238       Al248   1.880       .  S
Al239       O252   1.959       .  S
Al239       O249   1.963       .  S
Al239       O244   1.765       .  S
O240        C247   1.273       .  A
O240       Al248   1.959       .  S
O241        C250   1.272       .  A
O241       Al248   1.955       .  S
O242       Al248   1.873       .  S
O243        C250   1.257       .  A
O244       Al248   1.763       .  S
O245        C246   1.274       .  A
C246        C741   1.489       .  S
C247       C1032   1.489       .  S
C250        C780   1.469       .  S
C251       C1005   1.488       .  S
C251        O252   1.272       .  A
C253        N254   1.348       .  A
C253        N258   1.362       .  A
C253        C717   1.468       .  S
N254        C255   1.348       .  A
C255        N256   1.361       .  A
C255        C705   1.464       .  S
N256        C257   1.365       .  A
C257        N258   1.366       .  A
C257        C477   1.489       .  S
O259        C274   1.273       .  A
O259       Al267   1.957       .  S
C260        C792   1.492       .  S
C260        O270   1.275       .  A
C260        O261   1.258       .  A
O261       Al263   1.867       .  S
O262        C264   1.269       .  A
O262       Al263   1.947       .  S
Al263       O271   1.951       .  S
Al263       O273   1.876       .  S
Al263       O272   1.762       .  S
C264        C684   1.483       .  S
C264        O277   1.256       .  A
O265        C275   1.269       .  A
O265       Al267   1.943       .  S
O266        C279   1.275       .  A
O266       Al276   1.966       .  S
Al267       O280   1.864       .  S
Al267       O277   1.873       .  S
Al267       O272   1.762       .  S
O268        C275   1.257       .  A
O268       Al276   1.876       .  S
O269        C278   1.258       .  A
O269       Al276   1.878       .  S
O270       Al276   1.972       .  S
O271        C278   1.270       .  A
O272       Al276   1.762       .  S
O273        C274   1.259       .  A
C274        C708   1.471       .  S
C275        C888   1.475       .  S
C278       C1080   1.483       .  S
C279        C693   1.475       .  S
C279        O280   1.256       .  A
C281        N282   1.345       .  A
C281        N286   1.361       .  A
C281        C669   1.471       .  S
N282        C283   1.345       .  A
C283        N284   1.365       .  A
C283        C696   1.487       .  S
N284        C285   1.366       .  A
C285        N286   1.365       .  A
C285        C445   1.489       .  S
O287        C302   1.258       .  A
O287       Al295   1.874       .  S
C288        C621   1.478       .  S
C288        O298   1.257       .  A
C288        O289   1.271       .  A
O289       Al291   1.953       .  S
O290        C292   1.259       .  A
O290       Al291   1.870       .  S
Al291       O299   1.866       .  S
Al291       O301   1.944       .  S
Al291       O300   1.762       .  S
C292        C672   1.488       .  S
C292        O305   1.270       .  A
O293        C303   1.260       .  A
O293       Al295   1.879       .  S
O294        C307   1.257       .  A
O294       Al304   1.869       .  S
Al295       O308   1.952       .  S
Al295       O305   1.951       .  S
Al295       O300   1.761       .  S
O296        C303   1.269       .  A
O296       Al304   1.946       .  S
O297        C306   1.269       .  A
O297       Al304   1.947       .  S
O298       Al304   1.867       .  S
O299        C306   1.257       .  A
O300       Al304   1.761       .  S
O301        C302   1.270       .  A
C302        C633   1.475       .  S
C303        C960   1.486       .  S
C306        C645   1.483       .  S
C307        C657   1.478       .  S
C307        O308   1.271       .  A
C309        N310   1.357       .  A
C309        N314   1.344       .  A
C309        C612   1.457       .  S
N310        C311   1.363       .  A
C311        N312   1.365       .  A
C311        C480   1.484       .  S
N312        C313   1.363       .  A
C313        N314   1.346       .  A
C313        C624   1.485       .  S
O315        C330   1.272       .  A
O315       Al323   1.944       .  S
C316        C597   1.471       .  S
C316        O326   1.271       .  A
C316        O317   1.258       .  A
O317       Al319   1.874       .  S
O318        C320   1.267       .  A
O318       Al319   1.943       .  S
Al319       O327   1.948       .  S
Al319       O329   1.869       .  S
Al319       O328   1.763       .  S
C320       C1044   1.488       .  S
C320        O333   1.256       .  A
O321        C331   1.272       .  A
O321       Al323   1.940       .  S
O322        C335   1.268       .  A
O322       Al332   1.947       .  S
Al323       O336   1.880       .  S
Al323       O333   1.877       .  S
Al323       O328   1.763       .  S
O324        C331   1.255       .  A
O324       Al332   1.859       .  S
O325        C334   1.259       .  A
O325       Al332   1.873       .  S
O326       Al332   1.952       .  S
O327        C334   1.271       .  A
O328       Al332   1.765       .  S
O329        C330   1.258       .  A
C330        C945   1.478       .  S
C331        C609   1.472       .  S
C334        C588   1.481       .  S
C335        C732   1.486       .  S
C335        O336   1.258       .  A
C337        N338   1.364       .  A
C337        N342   1.347       .  A
C337        C573   1.481   1_655  S
N338        C339   1.365       .  A
C339        N340   1.366       .  A
N340        C341   1.362       .  A
C341        N342   1.346       .  A
C341        C876   1.468       .  S
O343        C358   1.255       .  A
O343       Al351   1.864       .  S
C344        C561   1.479       .  S
C344        O354   1.260       .  A
C344        O345   1.276       .  A
O345       Al347   1.959       .  S
O346        C348   1.254       .  A
O346       Al347   1.865       .  S
Al347       O355   1.892       .  S
Al347       O357   1.963       .  S
Al347       O356   1.766       .  S
C348        C549   1.475       .  S
C348        O361   1.271       .  A
O349        C359   1.255       .  A
O349       Al351   1.875       .  S
O350        C363   1.260       .  A
O350       Al360   1.869       .  S
Al351       O364   1.971       .  S
Al351       O361   1.958       .  S
Al351       O356   1.762       .  S
O352        C359   1.270       .  A
O352       Al360   1.959       .  S
O353        C362   1.268       .  A
O353       Al360   1.951       .  S
O354       Al360   1.865       .  S
O355        C362   1.260       .  A
O356       Al360   1.767       .  S
O357        C358   1.273       .  A
C358        C576   1.475       .  S
C359       C1056   1.488       .  S
C362        C933   1.497       .  S
C363        C984   1.487       .  S
C363        O364   1.277       .  A
C365        N366   1.362       .  A
C365        N370   1.345       .  A
C365        C537   1.479       .  S
N366        C367   1.365       .  A
C367        N368   1.365       .  A
C367        C443   1.486       .  S
N368        C369   1.361       .  A
C369        N370   1.344       .  A
C369        C564   1.479       .  S
C371        N372   1.352       .  A
C371        N376   1.367       .  A
C371        C552   1.495       .  S
N372        C373   1.347       .  A
C373        N374   1.356       .  A
C373        C600   1.461       .  S
N374        C375   1.360       .  A
C375        N376   1.367       .  A
C375        C514   1.488       .  S
C377        N378   1.349       .  A
C377        N382   1.363   1_655  A
C377        C585   1.485   1_655  S
N378        C379   1.344       .  A
C379        N380   1.358       .  A
C379        C660   1.462       .  S
N380        C381   1.362       .  A
C381        N382   1.365   1_655  A
C383        N384   1.360       .  A
C383        N388   1.343       .  A
C383        C648   1.468       .  S
N384        C385   1.364       .  A
C385        N386   1.366       .  A
N386        C387   1.361       .  A
C387        N388   1.345       .  A
C387        C681   1.473   1_565  S
C389        N390   1.345   1_455  A
C389        N394   1.362       .  A
C389        C525   1.485       .  S
N390        C391   1.345       .  A
C391        N392   1.362       .  A
C391        C828   1.478       .  S
N392        C393   1.366       .  A
C393        N394   1.365   1_655  A
O395        C410   1.271       .  A
O395       Al403   1.950       .  S
C396        C528   1.459       .  S
C396        O406   1.270       .  A
C396        O397   1.255       .  A
O397       Al399   1.860       .  S
O398        C400   1.275       .  A
O398       Al399   1.960       .  S
Al399       O407   1.957       .  S
Al399       O409   1.867       .  S
Al399       O408   1.763       .  S
C400        C996   1.486       .  S
C400        O413   1.259       .  A
O401        C411   1.272       .  A
O401       Al403   1.958       .  S
O402        C415   1.269       .  A
O402       Al412   1.940       .  S
Al403       O416   1.866       .  S
Al403       O413   1.874       .  S
Al403       O408   1.763       .  S
O404        C411   1.260       .  A
O404       Al412   1.880       .  S
O405        C414   1.257       .  A
O405       Al412   1.872       .  S
O406       Al412   1.946       .  S
O407        C414   1.271       .  A
O408       Al412   1.765       .  S
O409        C410   1.255       .  A
C410        C801   1.476       .  S
C411       C1017   1.489       .  S
C414        C753   1.489       .  S
C415        C540   1.477       .  S
C415        O416   1.256       .  A
C417        N418   1.360       .  A
C417        N422   1.344       .  A
C417        C636   1.462       .  S
N418        C419   1.365       .  A
C419        N420   1.367   1_556  A
N420        C421   1.365       .  A
C421        N422   1.344   1_554  A
C421        C849   1.491       .  S
N423        C428   1.357       .  A
N423        C427   1.355       .  A
N423        H455   1.036       .  S
N424        C431   1.354       .  A
N424        C432   1.356   1_554  A
N425        C430   1.355       .  A
N425        C429   1.356       .  A
N425        H456   1.036       .  S
N426        C433   1.356   1_556  A
N426        C434   1.356       .  A
C427        C435   1.389       .  A
C427        C443   1.424       .  A
C428        C444   1.424       .  A
C428        C436   1.388       .  A
C429        C437   1.388       .  A
C429        C446   1.423       .  A
C430        C445   1.423       .  A
C430        C438   1.388       .  A
C431        C443   1.422       .  A
C431        C439   1.387       .  A
C432        C446   1.422       .  A
C432        C440   1.386       .  A
C433        C441   1.386       .  A
C433        C444   1.423       .  A
C434        C442   1.387       .  A
C434        C445   1.424       .  A
C435        C436   1.376       .  A
C435        H447   1.083       .  S
C436        H448   1.082       .  S
C437        C438   1.376       .  A
C437        H449   1.082       .  S
C438        H450   1.082       .  S
C439        C440   1.376   1_554  A
C439        H451   1.082       .  S
C440        H452   1.082       .  S
C441        C442   1.377   1_554  A
C441        H453   1.082       .  S
C442        H454   1.082       .  S
N457        C462   1.356       .  A
N457        C461   1.357       .  A
N457        H489   1.033   1_545  S
N458        C465   1.355       .  A
N458        C466   1.354       .  A
N459        C464   1.357       .  A
N459        C463   1.354       .  A
N459        H490   1.031       .  S
N460        C467   1.354       .  A
N460        C468   1.356       .  A
C461        C469   1.387       .  A
C461        C477   1.422       .  A
C462        C478   1.421       .  A
C462        C470   1.388       .  A
C463        C471   1.389       .  A
C463        C480   1.422       .  A
C464        C479   1.421       .  A
C464        C472   1.387       .  A
C465        C477   1.421   1_565  A
C465        C473   1.387       .  A
C466        C480   1.421       .  A
C466        C474   1.387       .  A
C467        C475   1.387       .  A
C467        C478   1.421   1_565  A
C468        C476   1.386       .  A
C468        C479   1.421       .  A
C469        C470   1.377       .  A
C469        H481   1.082       .  S
C470        H482   1.082       .  S
C471        C472   1.375       .  A
C471        H483   1.082       .  S
C472        H484   1.082       .  S
C473        C474   1.376       .  A
C473        H485   1.082       .  S
C474        H486   1.082       .  S
C475        C476   1.377       .  A
C475        H487   1.082       .  S
C476        H488   1.082       .  S
N491        C496   1.358       .  A
N491        C495   1.357   1_655  A
N491        H523   1.036       .  S
N492        C499   1.354       .  A
N492        C500   1.354       .  A
N493        C498   1.356       .  A
N493        C497   1.356   1_655  A
N493        H524   1.032       .  S
N494        C501   1.353       .  A
N494        C502   1.354       .  A
C495        C503   1.387   1_455  A
C495        C511   1.422       .  A
C496        C512   1.424       .  A
C496        C504   1.387       .  A
C497        C505   1.388   1_455  A
C497        C514   1.424       .  A
C498        C513   1.424       .  A
C498        C506   1.388       .  A
C499        C511   1.417       .  A
C499        C507   1.386       .  A
C500        C514   1.420       .  A
C500        C508   1.387       .  A
C501        C509   1.387       .  A
C501        C512   1.418       .  A
C502        C510   1.387       .  A
C502        C513   1.419       .  A
C503        C504   1.380       .  A
C503        H515   1.082   1_655  S
C504        H516   1.082       .  S
C505        C506   1.379       .  A
C505        H517   1.082   1_655  S
C506        H518   1.082       .  S
C507        C508   1.373       .  A
C507        H519   1.082       .  S
C508        H520   1.082       .  S
C509        C510   1.372       .  A
C509        H521   1.081       .  S
C510        H522   1.082       .  S
C525        C526   1.417       .  A
C525        C530   1.412       .  A
C526        C527   1.394       .  A
C526        H535   1.083       .  S
C527        C528   1.399       .  A
C527        S531   1.805       .  S
C528        C529   1.405       .  A
C529        C530   1.397       .  A
C529        H536   1.085       .  S
C530        S532   1.801       .  S
S531        H534   1.406       .  S
S532        H533   1.408       .  S
C537        C538   1.411       .  A
C537        C542   1.408       .  A
C538        C539   1.395       .  A
C538        H547   1.082       .  S
C539        C540   1.409       .  A
C539        S543   1.811       .  S
C540        C541   1.412       .  A
C541        C542   1.396       .  A
C541        H548   1.083       .  S
C542        S544   1.802       .  S
S543        H546   1.407       .  S
S544        H545   1.407       .  S
C549        C550   1.407       .  A
C549        C554   1.404       .  A
C550        C551   1.400       .  A
C550        H559   1.084       .  S
C551        C552   1.415       .  A
C551        S555   1.801       .  S
C552        C553   1.417       .  A
C553        C554   1.400       .  A
C553        H560   1.083       .  S
C554        S556   1.804       .  S
S555        H558   1.408       .  S
S556        H557   1.406       .  S
C561        C562   1.412       .  A
C561        C566   1.409       .  A
C562        C563   1.397       .  A
C562        H571   1.084       .  S
C563        C564   1.408       .  A
C563        S567   1.802       .  S
C564        C565   1.411       .  A
C565        C566   1.394       .  A
C565        H572   1.084       .  S
C566        S568   1.803       .  S
S567        H570   1.407       .  S
S568        H569   1.408       .  S
C573        C574   1.398       .  A
C573        C578   1.422       .  A
C574        C575   1.400       .  A
C574        H583   1.083       .  S
C575        C576   1.420       .  A
C575        S579   1.808       .  S
C576        C577   1.395       .  A
C577        C578   1.399       .  A
C577        H584   1.084       .  S
C578        S580   1.804   1_455  S
S579        H582   1.407       .  S
S580        H581   1.408       .  S
C585        C586   1.411       .  A
C585        C590   1.411       .  A
C586        C587   1.397       .  A
C586        H595   1.082       .  S
C587        C588   1.409       .  A
C587        S591   1.810       .  S
C588        C589   1.411       .  A
C589        C590   1.399       .  A
C589        H596   1.084       .  S
C590        S592   1.802       .  S
S591        H594   1.407       .  S
S592        H593   1.407       .  S
C597        C598   1.404       .  A
C597        C602   1.414       .  A
C598        C599   1.397       .  A
C598        H607   1.084       .  S
C599        C600   1.409       .  A
C599        S603   1.805       .  S
C600        C601   1.400       .  A
C601        C602   1.398       .  A
C601        H608   1.084       .  S
C602        S604   1.804       .  S
S603        H606   1.406       .  S
S604        H605   1.407       .  S
C609        C610   1.401       .  A
C609        C614   1.420       .  A
C610        C611   1.389       .  A
C610        H619   1.084       .  S
C611        C612   1.411       .  A
C611        S615   1.806       .  S
C612        C613   1.398       .  A
C613        C614   1.399       .  A
C613        H620   1.084       .  S
C614        S616   1.805       .  S
S615        H618   1.407       .  S
S616        H617   1.408       .  S
C621        C622   1.410       .  A
C621        C626   1.406       .  A
C622        C623   1.396       .  A
C622        H631   1.084       .  S
C623        C624   1.410       .  A
C623        S627   1.801       .  S
C624        C625   1.415       .  A
C625        C626   1.399       .  A
C625        H632   1.082       .  S
C626        S628   1.809       .  S
S627        H630   1.408       .  S
S628        H629   1.407       .  S
C633        C634   1.403       .  A
C633        C638   1.416       .  A
C634        C635   1.394       .  A
C634        H643   1.084       .  S
C635        C636   1.410       .  A
C635        S639   1.805       .  S
C636        C637   1.401       .  A
C637        C638   1.400       .  A
C637        H644   1.084       .  S
C638        S640   1.804       .  S
S639        H642   1.407       .  S
S640        H641   1.408       .  S
C645        C646   1.413       .  A
C645        C650   1.414       .  A
C646        C647   1.396       .  A
C646        H655   1.083       .  S
C647        C648   1.405       .  A
C647        S651   1.803       .  S
C648        C649   1.406       .  A
C649        C650   1.394       .  A
C649        H656   1.084       .  S
C650        S652   1.803       .  S
S651        H654   1.407       .  S
S652        H653   1.408       .  S
C657        C658   1.409       .  A
C657        C662   1.415       .  A
C658        C659   1.398       .  A
C658        H667   1.084       .  S
C659        C660   1.406       .  A
C659        S663   1.803       .  S
C660        C661   1.401       .  A
C661        C662   1.399       .  A
C661        H668   1.084       .  S
C662        S664   1.808       .  S
S663        H666   1.404       .  S
S664        H665   1.407       .  S
C669        C670   1.405       .  A
C669        C674   1.406       .  A
C670        C671   1.396       .  A
C670        H679   1.084       .  S
C671        C672   1.416       .  A
C671        S675   1.801       .  S
C672        C673   1.413       .  A
C673        C674   1.397       .  A
C673        H680   1.083       .  S
C674        S676   1.802       .  S
S675        H678   1.406       .  S
S676        H677   1.406       .  S
C681        C682   1.406       .  A
C681        C686   1.407       .  A
C682        C683   1.392       .  A
C682        H691   1.085   1_545  S
C683        C684   1.412       .  A
C683        S687   1.803       .  S
C684        C685   1.414       .  A
C685        C686   1.399       .  A
C685        H692   1.083       .  S
C686        S688   1.800       .  S
S687        H690   1.408       .  S
S688        H689   1.406       .  S
C693        C694   1.394       .  A
C693        C698   1.419       .  A
C694        C695   1.397       .  A
C694        H703   1.084       .  S
C695        C696   1.426       .  A
C695        S699   1.805       .  S
C696        C697   1.400       .  A
C697        C698   1.401       .  A
C697        H704   1.082       .  S
C698        S700   1.808       .  S
S699        H702   1.408       .  S
S700        H701   1.407       .  S
C705        C706   1.402       .  A
C705        C710   1.410       .  A
C706        C707   1.400       .  A
C706        H715   1.084       .  S
C707        C708   1.413       .  A
C707        S711   1.804       .  S
C708        C709   1.403       .  A
C709        C710   1.397       .  A
C709        H716   1.084       .  S
C710        S712   1.804       .  S
S711        H714   1.407       .  S
S712        H713   1.406       .  S
C717        C718   1.398       .  A
C717        C722   1.412       .  A
C718        C719   1.400       .  A
C718        H727   1.084       .  S
C719        C720   1.420       .  A
C719        S723   1.804       .  S
C720        C721   1.405       .  A
C721        C722   1.399       .  A
C721        H728   1.084       .  S
C722        S724   1.806       .  S
S723        H726   1.408       .  S
S724        H725   1.406       .  S
C729        C730   1.401       .  A
C729        C734   1.410       .  A
C730        C731   1.396       .  A
C730        H739   1.085       .  S
C731        C732   1.416       .  A
C731        S735   1.800       .  S
C732        C733   1.411       .  A
C733        C734   1.402       .  A
C733        H740   1.084       .  S
C734        S736   1.803       .  S
S735        H738   1.407       .  S
S736        H737   1.403       .  S
C741        C742   1.412       .  A
C741        C746   1.413       .  A
C742        C743   1.399       .  A
C742        H751   1.083       .  S
C743        C744   1.410       .  A
C743        S747   1.802       .  S
C744        C745   1.411       .  A
C745        C746   1.400       .  A
C745        H752   1.084   1_545  S
C746        S748   1.803       .  S
S747        H750   1.407       .  S
S748        H749   1.408       .  S
C753        C754   1.414       .  A
C753        C758   1.413       .  A
C754        C755   1.399       .  A
C754        H763   1.083       .  S
C755        C756   1.408       .  A
C755        S759   1.800       .  S
C756        C757   1.408       .  A
C757        C758   1.396       .  A
C757        H764   1.084       .  S
C758        S760   1.802       .  S
S759        H762   1.407       .  S
S760        H761   1.407       .  S
C765        C766   1.401       .  A
C765        C770   1.409       .  A
C766        C767   1.405       .  A
C766        H775   1.083       .  S
C767        C768   1.413       .  A
C767        S771   1.807       .  S
C768        C769   1.401       .  A
C769        C770   1.398       .  A
C769        H776   1.081       .  S
C770        S772   1.808       .  S
S771        H774   1.407       .  S
S772        H773   1.407       .  S
C777        C778   1.401       .  A
C777        C782   1.423       .  A
C778        C779   1.401       .  A
C778        H787   1.082       .  S
C779        C780   1.415       .  A
C779        S783   1.807       .  S
C780        C781   1.394       .  A
C781        C782   1.397       .  A
C781        H788   1.084       .  S
C782        S784   1.804   1_455  S
S783        H786   1.407       .  S
S784        H785   1.408       .  S
C789        C790   1.407       .  A
C789        C794   1.407       .  A
C790        C791   1.401       .  A
C790        H799   1.084       .  S
C791        C792   1.414       .  A
C791        S795   1.801       .  S
C792        C793   1.415       .  A
C793        C794   1.397       .  A
C793        H800   1.083       .  S
C794        S796   1.803       .  S
S795        H798   1.408       .  S
S796        H797   1.407       .  S
C801        C802   1.402       .  A
C801        C806   1.419       .  A
C802        C803   1.394       .  A
C802        H811   1.084       .  S
C803        C804   1.411       .  A
C803        S807   1.804       .  S
C804        C805   1.400       .  A
C805        C806   1.400       .  A
C805        H812   1.084       .  S
C806        S808   1.805       .  S
S807        H810   1.407       .  S
S808        H809   1.408       .  S
C813        C814   1.406       .  A
C813        C818   1.400       .  A
C814        C815   1.398       .  A
C814        H823   1.084       .  S
C815        C816   1.415       .  A
C815        S819   1.801       .  S
C816        C817   1.417       .  A
C817        C818   1.393       .  A
C817        H824   1.083       .  S
C818        S820   1.804       .  S
S819        H822   1.408       .  S
S820        H821   1.407       .  S
C825        C826   1.414       .  A
C825        C830   1.413       .  A
C826        C827   1.400       .  A
C826        H835   1.083       .  S
C827        C828   1.408       .  A
C827        S831   1.801       .  S
C828        C829   1.408       .  A
C829        C830   1.393       .  A
C829        H836   1.084       .  S
C830        S832   1.803       .  S
S831        H834   1.407       .  S
S832        H833   1.408       .  S
C837        C838   1.416       .  A
C837        C842   1.415       .  A
C838        C839   1.397       .  A
C838        H847   1.083       .  S
C839        C840   1.407       .  A
C839        S843   1.804       .  S
C840        C841   1.409       .  A
C841        C842   1.400       .  A
C841        H848   1.084       .  S
C842        S844   1.799       .  S
S843        H846   1.408       .  S
S844        H845   1.408       .  S
C849        C850   1.401       .  A
C849        C854   1.428       .  A
C850        C851   1.401       .  A
C850        H859   1.082       .  S
C851        C852   1.419       .  A
C851        S855   1.807       .  S
C852        C853   1.394       .  A
C853        C854   1.397       .  A
C853        H860   1.084       .  S
C854        S856   1.805       .  S
S855        H858   1.407       .  S
S856        H857   1.408       .  S
C861        C862   1.400       .  A
C861        C866   1.412       .  A
C862        C863   1.402       .  A
C862        H871   1.084       .  S
C863        C864   1.419       .  A
C863        S867   1.804       .  S
C864        C865   1.404       .  A
C865        C866   1.399       .  A
C865        H872   1.084       .  S
C866        S868   1.805       .  S
S867        H870   1.408       .  S
S868        H869   1.407       .  S
C873        C874   1.404       .  A
C873        C878   1.422       .  A
C874        C875   1.399       .  A
C874        H883   1.084       .  S
C875        C876   1.413       .  A
C875        S879   1.804       .  S
C876        C877   1.398       .  A
C877        C878   1.399       .  A
C877        H884   1.084       .  S
C878        S880   1.806       .  S
S879        H882   1.407       .  S
S880        H881   1.408       .  S
C885        C886   1.401       .  A
C885        C890   1.410       .  A
C886        C887   1.401       .  A
C886        H895   1.084       .  S
C887        C888   1.416       .  A
C887        S891   1.804       .  S
C888        C889   1.403       .  A
C889        C890   1.396       .  A
C889        H896   1.084       .  S
C890        S892   1.805       .  S
S891        H894   1.407       .  S
S892        H893   1.407       .  S
C897        C898   1.412       .  A
C897        C902   1.418       .  A
C898        C899   1.400       .  A
C898        H907   1.084       .  S
C899        C900   1.407       .  A
C899        S903   1.802       .  S
C900        C901   1.405       .  A
C901        C902   1.405       .  A
C901        H908   1.083       .  S
C902        S904   1.810       .  S
S903        H906   1.406       .  S
S904        H905   1.406       .  S
C909        C910   1.411       .  A
C909        C914   1.413       .  A
C910        C911   1.397       .  A
C910        H919   1.084   1_545  S
C911        C912   1.413       .  A
C911        S915   1.804       .  S
C912        C913   1.410       .  A
C913        C914   1.400       .  A
C913        H920   1.083       .  S
C914        S916   1.800       .  S
S915        H918   1.408       .  S
S916        H917   1.408       .  S
C921        C922   1.401       .  A
C921        C926   1.412       .  A
C922        C923   1.402       .  A
C922        H931   1.084       .  S
C923        C924   1.417       .  A
C923        S927   1.803       .  S
C924        C925   1.405       .  A
C925        C926   1.398       .  A
C925        H932   1.084       .  S
C926        S928   1.805       .  S
S927        H930   1.408       .  S
S928        H929   1.406       .  S
C933        C934   1.412       .  A
C933        C938   1.421       .  A
C934        C935   1.403       .  A
C934        H943   1.083       .  S
C935        C936   1.408       .  A
C935        S939   1.799       .  S
C936        C937   1.404       .  A
C937        C938   1.404       .  A
C937        H944   1.083       .  S
C938        S940   1.810       .  S
S939        H942   1.405       .  S
S940        H941   1.407       .  S
C945        C946   1.404       .  A
C945        C950   1.419       .  A
C946        C947   1.394       .  A
C946        H955   1.084       .  S
C947        C948   1.410       .  A
C947        S951   1.805       .  S
C948        C949   1.400       .  A
C949        C950   1.401       .  A
C949        H956   1.084       .  S
C950        S952   1.805       .  S
S951        H954   1.406       .  S
S952        H953   1.408       .  S
C957        C958   1.409       .  A
C957        C962   1.411       .  A
C958        C959   1.396       .  A
C958        H967   1.084       .  S
C959        C960   1.413       .  A
C959        S963   1.803       .  S
C960        C961   1.411       .  A
C961        C962   1.399       .  A
C961        H968   1.083       .  S
C962        S964   1.799       .  S
S963        H966   1.408       .  S
S964        H965   1.407       .  S
C969        C970   1.401       .  A
C969        C974   1.410       .  A
C970        C971   1.403       .  A
C970        H979   1.084       .  S
C971        C972   1.417       .  A
C971        S975   1.804       .  S
C972        C973   1.404       .  A
C973        C974   1.396       .  A
C973        H980   1.084       .  S
C974        S976   1.804       .  S
S975        H978   1.407       .  S
S976        H977   1.406       .  S
C981        C982   1.410       .  A
C981        C986   1.409       .  A
C982        C983   1.396       .  A
C982        H991   1.084       .  S
C983        C984   1.411       .  A
C983        S987   1.802       .  S
C984        C985   1.414       .  A
C985        C986   1.399       .  A
C985        H992   1.083       .  S
C986        S988   1.802       .  S
S987        H990   1.408       .  S
S988        H989   1.407       .  S
C993        C994   1.400       .  A
C993        C998   1.413       .  A
C994        C995   1.403       .  A
C994       H1003   1.084       .  S
C995        C996   1.421       .  A
C995        S999   1.803       .  S
C996        C997   1.404       .  A
C997        C998   1.397       .  A
C997       H1004   1.084       .  S
C998       S1000   1.805       .  S
S999       H1002   1.408       .  S
S1000      H1001   1.407   1_545  S
C1005      C1006   1.412       .  A
C1005      C1010   1.408       .  A
C1006      C1007   1.404       .  A
C1006      H1015   1.084       .  S
C1007      C1008   1.414       .  A
C1007      S1011   1.801       .  S
C1008      C1009   1.414       .  A
C1009      C1010   1.398       .  A
C1009      H1016   1.083       .  S
C1010      S1012   1.803       .  S
S1011      H1014   1.408       .  S
S1012      H1013   1.408       .  S
C1017      C1018   1.410       .  A
C1017      C1022   1.419       .  A
C1018      C1019   1.400       .  A
C1018      H1027   1.084       .  S
C1019      C1020   1.408       .  A
C1019      S1023   1.802       .  S
C1020      C1021   1.401       .  A
C1021      C1022   1.404       .  A
C1021      H1028   1.083       .  S
C1022      S1024   1.810       .  S
S1023      H1026   1.404       .  S
S1024      H1025   1.406       .  S
C1029      C1030   1.411       .  A
C1029      C1034   1.411       .  A
C1030      C1031   1.399       .  A
C1030      H1039   1.084       .  S
C1031      C1032   1.413       .  A
C1031      S1035   1.803       .  S
C1032      C1033   1.412       .  A
C1033      C1034   1.400       .  A
C1033      H1040   1.083       .  S
C1034      S1036   1.802       .  S
S1035      H1038   1.406       .  S
S1036      H1037   1.408       .  S
C1041      C1042   1.403       .  A
C1041      C1046   1.408       .  A
C1042      C1043   1.396       .  A
C1042      H1051   1.085       .  S
C1043      C1044   1.417       .  A
C1043      S1047   1.802       .  S
C1044      C1045   1.413       .  A
C1045      C1046   1.401       .  A
C1045      H1052   1.084       .  S
C1046      S1048   1.800       .  S
S1047      H1050   1.408       .  S
S1048      H1049   1.406       .  S
C1053      C1054   1.410       .  A
C1053      C1058   1.410       .  A
C1054      C1055   1.396       .  A
C1054      H1063   1.084       .  S
C1055      C1056   1.411       .  A
C1055      S1059   1.802       .  S
C1056      C1057   1.414       .  A
C1057      C1058   1.402       .  A
C1057      H1064   1.084       .  S
C1058      S1060   1.801       .  S
S1059      H1062   1.408       .  S
S1060      H1061   1.406       .  S
C1065      C1066   1.404       .  A
C1065      C1070   1.407       .  A
C1066      C1067   1.398       .  A
C1066      H1075   1.085       .  S
C1067      C1068   1.416       .  A
C1067      S1071   1.801       .  S
C1068      C1069   1.411       .  A
C1069      C1070   1.399       .  A
C1069      H1076   1.084       .  S
C1070      S1072   1.802       .  S
S1071      H1074   1.408       .  S
S1072      H1073   1.404       .  S
C1077      C1078   1.414       .  A
C1077      C1082   1.412       .  A
C1078      C1079   1.398       .  A
C1078      H1087   1.083       .  S
C1079      C1080   1.409       .  A
C1079      S1083   1.804       .  S
C1080      C1081   1.409       .  A
C1081      C1082   1.399       .  A
C1081      H1088   1.084       .  S
C1082      S1084   1.800       .  S
S1083      H1086   1.407       .  S
S1084      H1085   1.406       .  S
C1089      C1090   1.400       .  A
C1089      C1094   1.408       .  A
C1090      C1091   1.400       .  A
C1090      H1099   1.083       .  S
C1091      C1092   1.419       .  A
C1091      S1095   1.809       .  S
C1092      C1093   1.408       .  A
C1093      C1094   1.398       .  A
C1093      H1100   1.084       .  S
C1094      S1096   1.803       .  S
S1095      H1098   1.407       .  S
S1096      H1097   1.404       .  S
