geometry optimzed in LAMMPS
_audit_creation_date              2020-12-01 
_audit_creation_method            'lammps2cif' 
_symmetry_space_group_name_H-M    'P1' 
_symmetry_Int_Tables_number       1 
_symmetry_cell_setting            triclinic 
loop_ 
_symmetry_equiv_pos_as_xyz 
  x,y,z 
_cell_length_a                    28.19360701 
_cell_length_b                    28.17840906450456 
_cell_length_c                    28.435370154314324 
_cell_angle_alpha                 89.51026426103039 
_cell_angle_beta                  88.8472500252307 
_cell_angle_gamma                 90.0319624207495 
loop_ 
_atom_site_label 
_atom_site_type_symbol 
_atom_site_fract_x 
_atom_site_fract_y 
_atom_site_fract_z 
_atom_site_charge 
C1          C  0.07475605  0.85588796  0.51113021     0.04000
C2          C  0.09941344  0.86287632  0.46738475     0.04000
C3          C  0.13833531  0.89616248  0.46401238     0.04000
C4          C  0.14893111  0.92421516  0.50383803     0.04000
C5          C  0.13659708  0.90393764  0.54867652     0.04000
C6          C  0.10220150  0.86573203  0.55128095     0.04000
C7          C  0.15131415  0.06651359  0.50539103     0.04000
C8          C  0.14530251  0.08291245  0.45812078     0.04000
C9          C  0.11075694  0.11943498  0.44896350     0.04000
C10         C  0.08062311  0.13491902  0.48683579     0.04000
C11         C  0.10141487  0.13278666  0.53284749     0.04000
C12         C  0.13966862  0.09957703  0.54124107     0.04000
C13         C  0.93646830  0.14270849  0.49808290     0.04000
C14         C  0.91524133  0.12870519  0.45493306     0.04000
C15         C  0.87857305  0.09221891  0.45640692     0.04000
C16         C  0.86602856  0.07047498  0.50090933     0.04000
C17         C  0.87127642  0.10048808  0.54117080     0.04000
C18         C  0.90692768  0.13816800  0.53938196     0.04000
C19         C  0.93027090  0.85177127  0.49464331     0.04000
C20         C  0.89901201  0.85199775  0.45548300     0.04000
C21         C  0.86301710  0.88995571  0.45384339     0.04000
C22         C  0.86099701  0.92426978  0.49098005     0.04000
C23         C  0.87355583  0.90571670  0.53568983     0.04000
C24         C  0.90960107  0.86919628  0.53735799     0.04000
C25         C  0.51271045  0.14624027  0.07374985     0.04000
C26         C  0.46737415  0.13099668  0.09295333     0.04000
C27         C  0.46710973  0.09266286  0.12791477     0.04000
C28         C  0.51162286  0.07357518  0.14370151     0.04000
C29         C  0.55104250  0.10554552  0.14167456     0.04000
C30         C  0.55220017  0.14216508  0.10513681     0.04000
C31         C  0.50160613  0.14475464  0.93032333     0.04000
C32         C  0.46100469  0.13237515  0.90342858     0.04000
C33         C  0.46380349  0.09473714  0.86920869     0.04000
C34         C  0.50873968  0.07267812  0.86100811     0.04000
C35         C  0.54956073  0.10139463  0.87093545     0.04000
C36         C  0.54640072  0.13800309  0.90662419     0.04000
C37         C  0.50291121  0.92867160  0.14866727     0.04000
C38         C  0.46364384  0.89846722  0.14083592     0.04000
C39         C  0.46464471  0.86833001  0.09956621     0.04000
C40         C  0.50876413  0.86309112  0.07433619     0.04000
C41         C  0.54960556  0.87182002  0.10191437     0.04000
C42         C  0.54765598  0.90752813  0.13801234     0.04000
C43         C  0.49201053  0.92903526  0.85610490     0.04000
C44         C  0.53653299  0.91065015  0.86929239     0.04000
C45         C  0.53708318  0.87921235  0.90960372     0.04000
C46         C  0.49373134  0.86162558  0.93044093     0.04000
C47         C  0.45500117  0.85993836  0.89897975     0.04000
C48         C  0.45257664  0.89701385  0.86307109     0.04000
C49         C  0.08234778  0.49080192  0.84927448     0.04000
C50         C  0.11350857  0.45094336  0.84972155     0.04000
C51         C  0.14890297  0.44835123  0.88616302     0.04000
C52         C  0.14904465  0.48415121  0.92181981     0.04000
C53         C  0.13464059  0.52967740  0.90551257     0.04000
C54         C  0.10054206  0.53327008  0.86864793     0.04000
C55         C  0.14923155  0.49018671  0.06681249     0.04000
C56         C  0.14421904  0.44496468  0.09036826     0.04000
C57         C  0.10837762  0.44102815  0.12786272     0.04000
C58         C  0.07796712  0.48101356  0.13659270     0.04000
C59         C  0.10101728  0.52635619  0.13077324     0.04000
C60         C  0.14042223  0.52998748  0.09663969     0.04000
C61         C  0.93195515  0.49447941  0.13313857     0.04000
C62         C  0.90060458  0.53457890  0.13141114     0.04000
C63         C  0.86284624  0.53566852  0.09793741     0.04000
C64         C  0.85701536  0.49610013  0.06792742     0.04000
C65         C  0.87145885  0.45139836  0.08620239     0.04000
C66         C  0.91086144  0.45046980  0.11863171     0.04000
C67         C  0.94065960  0.50199589  0.85365804     0.04000
C68         C  0.92028650  0.45694134  0.86140551     0.04000
C69         C  0.88515886  0.45045406  0.89790505     0.04000
C70         C  0.87333321  0.48908925  0.92733814     0.04000
C71         C  0.88051508  0.53478502  0.90655000     0.04000
C72         C  0.91117960  0.54006053  0.86591981     0.04000
O73         O  0.15778107  0.96714905  0.76786437    -0.78400
O74         O  0.23703145  0.04132346  0.84510834    -0.78400
O75         O  0.26656576  0.90284720  0.79652910    -0.78400
O76         O  0.20760952  0.10561491  0.73906861    -0.78400
O77         O  0.23682872  0.95694060  0.84346418    -0.78500
O78         O  0.16097277  0.05106228  0.76999352    -0.78400
O79         O  0.27060938  0.09872865  0.80355778    -0.78400
O80         O  0.19900817  0.90979158  0.73478778    -0.78400
C81         C  0.16340389  0.92454975  0.75889143     1.11300
C82         C  0.24341370  0.08410139  0.83701941     1.11200
C83         C  0.24613358  0.91483067  0.83483994     1.11300
C84         C  0.17277452  0.09332492  0.76548795     1.11200
O85         O  0.18589088  0.05268328  0.67509880    -0.78400
O86         O  0.33080606  0.95871975  0.81440238    -0.78500
O87         O  0.25982601  0.94912066  0.66244603    -0.78400
O88         O  0.34367561  0.06133881  0.74400132    -0.78400
O89         O  0.33292093  0.04032914  0.81937588    -0.78400
O90         O  0.18394443  0.96954067  0.67276593    -0.78400
O91         O  0.26341873  0.06683740  0.66461756    -0.78400
O92         O  0.33879778  0.94271539  0.73790521    -0.78400
Co93       Co  0.19382671  0.00890760  0.72897543     1.51500
Co94       Co  0.27590802  0.00087209  0.80909860     1.51700
Co95       Co  0.26727109  0.93284539  0.73174395     1.51600
Co96       Co  0.27278486  0.07645705  0.73601225     1.51500
O97         O  0.25684642  0.00472144  0.74702487    -1.40300
C98         C  0.22019634  0.06676691  0.64873193     1.11200
C99         C  0.35531299  0.94241884  0.78019584     1.11300
C100        C  0.21707829  0.95228158  0.64697071     1.11300
C101        C  0.35954786  0.05746832  0.78662499     1.11200
O102        O  0.04576190  0.18642185  0.76504064    -0.78400
O103        O  0.99358896  0.24422811  0.81756376    -0.78400
O104        O  0.10182929  0.29233255  0.78660066    -0.78400
O105        O  0.93850364  0.19115135  0.71344816    -0.78400
O106        O  0.03429121  0.26940288  0.82098440    -0.78500
O107        O  0.99695058  0.13714906  0.70140658    -0.78400
O108        O  0.92529798  0.24589578  0.78453057    -0.78400
O109        O  0.11156443  0.21683475  0.73442969    -0.78400
C110        C  0.09008452  0.19065610  0.76436687     1.11300
C111        C  0.95030666  0.23247268  0.81828964     1.11200
C112        C  0.07793734  0.28065581  0.82313800     1.11300
C113        C  0.95390767  0.14817277  0.70934060     1.11200
O114        O  0.98643373  0.20789847  0.64210813    -0.78400
O115        O  0.03557512  0.35208436  0.77711106    -0.78500
O116        O  0.08951887  0.26463806  0.64807859    -0.78400
O117        O  0.93518494  0.33667387  0.73619521    -0.78400
O118        O  0.95368347  0.32823030  0.81186879    -0.78400
O119        O  0.07149825  0.18991590  0.66577506    -0.78400
O120        O  0.94195907  0.27129285  0.64789635    -0.78400
O121        O  0.07816838  0.35160894  0.71102180    -0.78400
Co122      Co  0.01450713  0.20003979  0.70618169     1.51500
Co123      Co  0.99288367  0.29635142  0.77041824     1.51700
Co124      Co  0.09075886  0.28141968  0.71787382     1.51600
Co125      Co  0.94314493  0.26388359  0.71836737     1.51500
O126        O  0.01958836  0.26502078  0.71934901    -1.40300
C127        C  0.95494278  0.23432274  0.62528572     1.11200
C128        C  0.06613697  0.37154515  0.75001257     1.11300
C129        C  0.08605735  0.22070876  0.63597001     1.11300
C130        C  0.93530634  0.35276549  0.77959290     1.11200
O131        O  0.07913853  0.73157325  0.35256770    -0.78400
O132        O  0.92869600  0.63928517  0.26992327    -0.78400
O133        O  0.98023774  0.76650151  0.36212856    -0.78400
O134        O  0.03309950  0.64078890  0.20284877    -0.78400
O135        O  0.93063571  0.70602610  0.35808589    -0.78500
O136        O  0.06935162  0.62936670  0.27154511    -0.78400
O137        O  0.95250900  0.65492054  0.19601689    -0.78400
O138        O  0.05844875  0.80855567  0.33944717    -0.78400
C139        C  0.07815754  0.77697481  0.36516969     1.11300
C140        C  0.93283471  0.62724333  0.22595176     1.11200
C141        C  0.94526438  0.74372264  0.37887706     1.11300
C142        C  0.05856527  0.61507764  0.22958086     1.11200
O143        O  0.10185730  0.69924973  0.22341034    -0.78400
O144        O  0.90961570  0.77813092  0.29672831    -0.78500
O145        O  0.05464792  0.79216608  0.24696186    -0.78400
O146        O  0.96347480  0.75090207  0.18071204    -0.78400
O147        O  0.90177717  0.72347282  0.22145828    -0.78400
O148        O  0.11239931  0.75050915  0.27271056    -0.78400
O149        O  0.04952924  0.73008978  0.17499385    -0.78400
O150        O  0.97618868  0.81962430  0.28323816    -0.78400
Co151      Co  0.06323919  0.70034548  0.28604541     1.51500
Co152      Co  0.92312055  0.71011654  0.28723017     1.51700
Co153      Co  0.01921737  0.77194302  0.30329376     1.51600
Co154      Co  0.99934518  0.70279171  0.21131768     1.51500
O155        O  0.99427462  0.71915007  0.27406573    -1.40300
C156        C  0.09013237  0.71483305  0.18269556     1.11200
C157        C  0.93205896  0.81610826  0.28746667     1.11300
C158        C  0.09827974  0.78734402  0.25164600     1.11300
C159        C  0.91983965  0.74590264  0.18642706     1.11200
O160        O  0.33675705  0.81422295  0.04434726    -0.78400
O161        O  0.19347237  0.66063878  0.94096318    -0.78400
O162        O  0.27546123  0.64621980  0.07420078    -0.78400
O163        O  0.35518149  0.71149514  0.91860888    -0.78400
O164        O  0.21802907  0.63594214  0.02346642    -0.78500
O165        O  0.35488544  0.77245762  0.96625221    -0.78400
O166        O  0.26695545  0.64543813  0.91452015    -0.78400
O167        O  0.35116387  0.73705047  0.05777497    -0.78400
C168        C  0.36434079  0.78221839  0.06037588     1.11300
C169        C  0.22333729  0.63242224  0.92215330     1.11200
C170        C  0.24035122  0.62149583  0.05882012     1.11300
C171        C  0.37461637  0.74980490  0.93352392     1.11200
O172        O  0.26766492  0.81767637  0.97281884    -0.78400
O173        O  0.14440785  0.69549299  0.02179328    -0.78500
O174        O  0.27701334  0.73863069  0.11894633    -0.78400
O175        O  0.21674843  0.73093697  0.89722998    -0.78400
O176        O  0.18945673  0.75977931  0.96428439    -0.78400
O177        O  0.25003587  0.78329130  0.06028473    -0.78400
O178        O  0.29223254  0.78578652  0.90566001    -0.78400
O179        O  0.20559373  0.71057693  0.06789864    -0.78400
Co180      Co  0.30048896  0.77088990  0.01089221     1.51500
Co181      Co  0.20694057  0.70037600  0.99574146     1.51700
Co182      Co  0.27798919  0.71684600  0.05584867     1.51600
Co183      Co  0.28340853  0.71610913  0.91334087     1.51500
O184        O  0.27255086  0.71268724  0.98473601    -1.40300
C185        C  0.27223962  0.81857389  0.92873138     1.11200
C186        C  0.16123747  0.70470042  0.06199855     1.11300
C187        C  0.26023657  0.77785477  0.10373703     1.11300
C188        C  0.18843486  0.75745931  0.92008176     1.11200
O189        O  0.06934012  0.16629876  0.30940707    -0.78400
O190        O  0.95523396  0.31221702  0.15877542    -0.78400
O191        O  0.08039430  0.32751014  0.25956476    -0.78400
O192        O  0.93424732  0.24639642  0.32277843    -0.78400
O193        O  0.03573833  0.32877058  0.19735120    -0.78500
O194        O  0.98274553  0.18576715  0.33095359    -0.78400
O195        O  0.94424777  0.32132945  0.23659411    -0.78400
O196        O  0.09074852  0.24130495  0.32177163    -0.78400
C197        C  0.08647430  0.19779124  0.33632943     1.11300
C198        C  0.94104769  0.33807273  0.19301267     1.11200
C199        C  0.06659633  0.34818783  0.22221160     1.11300
C200        C  0.95029123  0.21181736  0.34761260     1.11200
O201        O  0.99270832  0.11404309  0.27134359    -0.78400
O202        O  0.02916040  0.24377903  0.14995523    -0.78500
O203        O  0.11158431  0.19312472  0.23746142    -0.78400
O204        O  0.88352358  0.24639388  0.23636974    -0.78400
O205        O  0.93860762  0.22460655  0.18398722    -0.78400
O206        O  0.04659304  0.16387901  0.20837083    -0.78400
O207        O  0.94153950  0.17221374  0.25349669    -0.78400
O208        O  0.09751396  0.26649621  0.18088406    -0.78400
Co209      Co  0.01354115  0.17759908  0.26783026     1.51500
Co210      Co  0.99055496  0.27367474  0.19878459     1.51700
Co211      Co  0.09077540  0.25767798  0.25155581     1.51600
Co212      Co  0.94878089  0.24704439  0.25227304     1.51500
O213        O  0.01984151  0.24359744  0.25505571    -1.40300
C214        C  0.95208600  0.12772435  0.25777954     1.11200
C215        C  0.07306264  0.25175045  0.14655764     1.11300
C216        C  0.09081267  0.16354675  0.21206832     1.11300
C217        C  0.89446268  0.22875969  0.19660661     1.11200
O218        O  0.19413772  0.94351612  0.33366821    -0.78400
O219        O  0.33728914  0.02655300  0.17993378    -0.78400
O220        O  0.35510418  0.92885328  0.27896758    -0.78400
O221        O  0.27090861  0.05299172  0.33622165    -0.78400
O222        O  0.34857569  0.95066472  0.20635326    -0.78500
O223        O  0.19660389  0.02586689  0.33169116    -0.78400
O224        O  0.34728848  0.05209543  0.25371704    -0.78400
O225        O  0.27041957  0.93006648  0.34765179    -0.78400
C226        C  0.22629619  0.93004788  0.36151097     1.11300
C227        C  0.36259379  0.04781963  0.21048999     1.11200
C228        C  0.37309523  0.93332010  0.23780612     1.11300
C229        C  0.22892387  0.04646558  0.35471433     1.11200
O230        O  0.16472366  0.02152943  0.24122114    -0.78400
O231        O  0.28974521  0.93923805  0.14123320    -0.78500
O232        O  0.22081460  0.88572659  0.27419960    -0.78400
O233        O  0.27149935  0.07741697  0.19746234    -0.78400
O234        O  0.23345505  0.01501641  0.17082265    -0.78400
O235        O  0.17567849  0.93634717  0.23815295    -0.78400
O236        O  0.20712220  0.08207695  0.26473648    -0.78400
O237        O  0.28408547  0.89597473  0.20905730    -0.78400
Co238      Co  0.20536996  0.98327505  0.27747621     1.51500
Co239      Co  0.28639467  0.97766519  0.19458739     1.51700
Co240      Co  0.28402695  0.91788267  0.27791321     1.51600
Co241      Co  0.27619433  0.06097692  0.26497437     1.51500
O242        O  0.26992892  0.98875230  0.25875891    -1.40300
C243        C  0.17257926  0.06484523  0.24203422     1.11200
C244        C  0.28413082  0.89986604  0.16377406     1.11300
C245        C  0.18614796  0.89452708  0.24812249     1.11300
C246        C  0.24371199  0.05866496  0.16855308     1.11200
O247        O  0.33517740  0.25232317  0.07017464    -0.78400
O248        O  0.27291170  0.34339202  0.89547450    -0.78400
O249        O  0.33286366  0.19307360  0.95199512    -0.78400
O250        O  0.26360373  0.35521020  0.05339045    -0.78400
O251        O  0.34550325  0.26441958  0.91972088    -0.78500
O252        O  0.24233818  0.29997580  0.10069382    -0.78400
O253        O  0.26975205  0.37588900  0.96368030    -0.78400
O254        O  0.33600569  0.18666941  0.03219473    -0.78400
C255        C  0.35702495  0.21353525  0.06004480     1.11300
C256        C  0.26186118  0.37858388  0.92083405     1.11200
C257        C  0.35975974  0.22193947  0.92932882     1.11300
C258        C  0.24198320  0.34394083  0.09037366     1.11200
O259        O  0.19718517  0.23504405  0.03926864    -0.78400
O260        O  0.26596577  0.20557267  0.90386925    -0.78500
O261        O  0.25074757  0.16193263  0.04106837    -0.78400
O262        O  0.17777231  0.33039385  0.95009007    -0.78400
O263        O  0.20632771  0.27272972  0.90647210    -0.78400
O264        O  0.25620009  0.20315297  0.10571884    -0.78400
O265        O  0.17314455  0.30859790  0.03928657    -0.78400
O266        O  0.22657993  0.18175428  0.96534947    -0.78400
Co267      Co  0.26438824  0.24785301  0.05405081     1.51500
Co268      Co  0.27449360  0.27378227  0.91564841     1.51700
Co269      Co  0.28013720  0.20944080  0.99629954     1.51600
Co270      Co  0.22426991  0.33952949  0.00093575     1.51500
O271        O  0.26816288  0.28087316  0.99032024    -1.40300
C272        C  0.16531172  0.26517549  0.04572220     1.11200
C273        C  0.23398526  0.18032994  0.92245176     1.11300
C274        C  0.24598387  0.16483108  0.08534538     1.11300
C275        C  0.17275355  0.29813836  0.92026701     1.11200
O276        O  0.81741328  0.04574447  0.32849152    -0.78400
O277        O  0.67528609  0.94932957  0.19936069    -0.78400
O278        O  0.66210985  0.07776821  0.27513333    -0.78400
O279        O  0.72489401  0.92799836  0.35543420    -0.78400
O280        O  0.65922164  0.03233700  0.21415854    -0.78500
O281        O  0.79154512  0.96660898  0.35395116    -0.78400
O282        O  0.65842711  0.92851877  0.27297059    -0.78400
O283        O  0.74621294  0.07671329  0.34040144    -0.78400
C284        C  0.78880937  0.06853257  0.35469173     1.11300
C285        C  0.64590914  0.93306303  0.22963466     1.11200
C286        C  0.64031144  0.06378867  0.23892926     1.11300
C287        C  0.76370019  0.93871898  0.37474711     1.11200
O288        O  0.86076154  0.96734074  0.29399416    -0.78400
O289        O  0.71951771  0.01637070  0.14696355    -0.78500
O290        O  0.80225132  0.08882720  0.25691561    -0.78400
O291        O  0.73977845  0.89960436  0.22077175    -0.78400
O292        O  0.77732452  0.95999514  0.19121813    -0.78400
O293        O  0.82154346  0.02059782  0.22917552    -0.78400
O294        O  0.80301144  0.91153289  0.28738969    -0.78400
O295        O  0.73064075  0.07916972  0.19529663    -0.78400
Co296      Co  0.80090149  0.99081038  0.28861663     1.51500
Co297      Co  0.72237306  0.00009474  0.20854989     1.51700
Co298      Co  0.73385402  0.07416455  0.26924271     1.51600
Co299      Co  0.72986743  0.92412017  0.28498528     1.51500
O300        O  0.73487935  0.99872207  0.27472573    -1.40300
C301        C  0.84716479  0.92485439  0.28907295     1.11200
C302        C  0.72680715  0.05999672  0.15389203     1.11300
C303        C  0.83169921  0.06299265  0.23542591     1.11300
C304        C  0.76637481  0.91709886  0.18932574     1.11200
O305        O  0.65862206  0.23062521  0.02140749    -0.78400
O306        O  0.83204308  0.32221114  0.95594787    -0.78400
O307        O  0.73870963  0.33651924  0.04328240    -0.78400
O308        O  0.67691880  0.26368026  0.91993151    -0.78400
O309        O  0.81451480  0.31785862  0.04845689    -0.78500
O310        O  0.68165157  0.18910267  0.93878740    -0.78400
O311        O  0.75890445  0.33483208  0.92802569    -0.78400
O312        O  0.67121211  0.26497648  0.08995438    -0.78400
C313        C  0.64428419  0.23991133  0.06390848     1.11300
C314        C  0.80138951  0.34890319  0.93601287     1.11200
C315        C  0.78232276  0.34897776  0.05030697     1.11300
C316        C  0.65714468  0.22220827  0.92311379     1.11200
O317        O  0.77252693  0.16285924  0.96329531    -0.78400
O318        O  0.82466039  0.21767136  0.05120668    -0.78500
O319        O  0.72516398  0.19207673  0.06337221    -0.78400
O320        O  0.82146773  0.26148449  0.89644298    -0.78400
O321        O  0.84883347  0.22070868  0.95653939    -0.78400
O322        O  0.69245525  0.14114194  0.01284025    -0.78400
O323        O  0.75391792  0.19848992  0.89619354    -0.78400
O324        O  0.77252502  0.25638845  0.09534299    -0.78400
Co325      Co  0.72058193  0.19783752  0.99371689     1.51500
Co326      Co  0.82650820  0.26753968  0.00180348     1.51700
Co327      Co  0.72442002  0.26461061  0.04529708     1.51600
Co328      Co  0.75119165  0.26605903  0.91448069     1.51500
O329        O  0.75906591  0.25525244  0.98481996    -1.40300
C330        C  0.77383546  0.16522937  0.91882431     1.11200
C331        C  0.80804432  0.22884637  0.09134805     1.11300
C332        C  0.71160519  0.15036637  0.05139784     1.11300
C333        C  0.85233122  0.23383107  0.91432529     1.11200
O334        O  0.03734641  0.80091122  0.66731580    -0.78400
O335        O  0.96908100  0.66223319  0.81309156    -0.78400
O336        O  0.07030203  0.65756164  0.74703789    -0.78400
O337        O  0.94423118  0.74483415  0.66004857    -0.78400
O338        O  0.04869176  0.66840570  0.82270549    -0.78500
O339        O  0.95339653  0.82371186  0.66999980    -0.78400
O340        O  0.95014774  0.65466559  0.73671404    -0.78400
O341        O  0.06828539  0.72978220  0.66294243    -0.78400
C342        C  0.06243440  0.77162084  0.64514838     1.11300
C343        C  0.95282488  0.63772096  0.77940194     1.11200
C344        C  0.06626428  0.64210320  0.79014447     1.11300
C345        C  0.94145957  0.78918254  0.64389051     1.11200
O346        O  0.97314183  0.82941291  0.76218022    -0.78400
O347        O  0.04492533  0.76574911  0.84333134    -0.78500
O348        O  0.09130993  0.79734829  0.73271824    -0.78400
O349        O  0.90496342  0.71811316  0.79690986    -0.78400
O350        O  0.95320756  0.75276572  0.84577781    -0.78400
O351        O  0.02126905  0.83200777  0.74916825    -0.78400
O352        O  0.90990441  0.79023609  0.74217472    -0.78400
O353        O  0.10297648  0.73586863  0.80010986    -0.78400
Co354      Co  0.98583656  0.78494875  0.71146154     1.51500
Co355      Co  0.00435072  0.72222404  0.81167406     1.51700
Co356      Co  0.07791701  0.72858212  0.73440522     1.51600
Co357      Co  0.93531920  0.72502103  0.73257404     1.51500
O358        O  0.00719986  0.73768671  0.74861943    -1.40300
C359        C  0.92871743  0.82379378  0.76450878     1.11200
C360        C  0.08817600  0.76105647  0.83438824     1.11300
C361        C  0.06661233  0.83083603  0.75009544     1.11300
C362        C  0.91223271  0.74119902  0.83415634     1.11200
O363        O  0.73964049  0.05556992  0.65601377    -0.78400
O364        O  0.65736807  0.93787057  0.73617586    -0.78400
O365        O  0.81924505  0.94542360  0.66934725    -0.78400
O366        O  0.67791269  0.04241134  0.81765148    -0.78400
O367        O  0.74264507  0.93296277  0.65732354    -0.78500
O368        O  0.66540558  0.05965262  0.74216236    -0.78400
O369        O  0.66667442  0.96044529  0.81082906    -0.78400
O370        O  0.81400787  0.02850858  0.66012408    -0.78400
C371        C  0.78199104  0.05030572  0.63745684     1.11300
C372        C  0.64047865  0.94364119  0.77900893     1.11200
C373        C  0.78657859  0.93302909  0.64197151     1.11300
C374        C  0.65135667  0.05951342  0.78595566     1.11200
O375        O  0.74641185  0.09130374  0.79333398    -0.78400
O376        O  0.79526244  0.89444354  0.73576387    -0.78500
O377        O  0.84478923  0.03296955  0.75338730    -0.78400
O378        O  0.75712732  0.94631866  0.84032154    -0.78400
O379        O  0.72323549  0.89500870  0.79405517    -0.78400
O380        O  0.80405927  0.08948016  0.72004111    -0.78400
O381        O  0.77629438  0.03051978  0.83126078    -0.78400
O382        O  0.83552338  0.95303702  0.76567468    -0.78400
Co383      Co  0.73645363  0.06730716  0.72724905     1.51500
Co384      Co  0.72876002  0.92201580  0.72859536     1.51700
Co385      Co  0.80635331  0.99099044  0.71956656     1.51600
Co386      Co  0.72736323  0.99463822  0.80345223     1.51500
O387        O  0.74398098  0.99390600  0.73977514    -1.40300
C388        C  0.77287091  0.07401454  0.82506879     1.11200
C389        C  0.82838718  0.90997644  0.76161067     1.11300
C390        C  0.84190882  0.07375450  0.73760977     1.11300
C391        C  0.74575145  0.90477440  0.83083550     1.11200
O392        O  0.71930767  0.83097382  0.05682082    -0.78400
O393        O  0.81654587  0.74250924  0.96919566    -0.78400
O394        O  0.78497030  0.73175492  0.11570732    -0.78400
O395        O  0.72514176  0.76334188  0.91563341    -0.78400
O396        O  0.83099812  0.71139130  0.05443613    -0.78500
O397        O  0.74576007  0.81503770  0.96954209    -0.78400
O398        O  0.76500928  0.72330608  0.91515591    -0.78400
O399        O  0.74215125  0.78273996  0.11460504    -0.78400
C400        C  0.73954870  0.82339999  0.09551653     1.11300
C401        C  0.80716234  0.73707498  0.92680982     1.11200
C402        C  0.82473258  0.72858283  0.09491107     1.11300
C403        C  0.73958852  0.80531536  0.92730840     1.11200
O404        O  0.65536940  0.82948881  0.98259483    -0.78400
O405        O  0.76026736  0.63721236  0.04063526    -0.78500
O406        O  0.66121408  0.74122734  0.11679837    -0.78400
O407        O  0.75590947  0.64881028  0.94622752    -0.78400
O408        O  0.82813757  0.65161250  0.97886170    -0.78400
O409        O  0.64204302  0.76256703  0.04601113    -0.78400
O410        O  0.65082866  0.75645994  0.95041042    -0.78400
O411        O  0.73938244  0.65569960  0.11243546    -0.78400
Co412      Co  0.69728105  0.78663796  0.00818905     1.51500
Co413      Co  0.78623788  0.69355983  0.00563992     1.51700
Co414      Co  0.72338102  0.72098161  0.08917768     1.51600
Co415      Co  0.70670363  0.70579935  0.95857848     1.51500
O416        O  0.73420327  0.73236889  0.02120835    -1.40300
C417        C  0.63493010  0.79993928  0.95602490     1.11200
C418        C  0.76092821  0.62805636  0.08411311     1.11300
C419        C  0.63507275  0.76535216  0.08983961     1.11300
C420        C  0.79911129  0.63220578  0.95134395     1.11200
C421        C  0.75415221  0.86884416  0.86370784    -0.11500
C422        C  0.75264542  0.83839870  0.89254133    -0.13100
C423        C  0.84143316  0.74913278  0.89224962    -0.11500
C424        C  0.87387333  0.75001587  0.86503882    -0.13100
C425        C  0.89795603  0.85736735  0.78381530    -0.11500
C426        C  0.86300267  0.88030130  0.78060064    -0.13100
C427        C  0.79217718  0.10291833  0.85951367    -0.11500
C428        C  0.79354252  0.12882548  0.89192727    -0.13100
C429        C  0.71947115  0.11433216  0.08299355    -0.11500
C430        C  0.72608582  0.08898462  0.11492903    -0.13100
C431        C  0.76019780  0.86210271  0.11934377    -0.11500
C432        C  0.77191647  0.89094572  0.14741846    -0.13100
C433        C  0.22976162  0.12436056  0.11029822    -0.11500
C434        C  0.22708329  0.08883023  0.13305035    -0.13100
C435        C  0.09577402  0.24746320  0.10198040    -0.11500
C436        C  0.12315954  0.25136581  0.06968176    -0.13100
C437        C  0.83262412  0.21509289  0.13235665    -0.11500
C438        C  0.85872472  0.21510085  0.16499940    -0.13100
C439        C  0.87989749  0.07735378  0.23386795    -0.11500
C440        C  0.91686193  0.09493305  0.24418994    -0.13100
C441        C  0.11642656  0.12299719  0.20095001    -0.11500
C442        C  0.14275263  0.09414133  0.21577957    -0.13100
C443        C  0.27379719  0.85785607  0.14105442    -0.11500
C444        C  0.26308189  0.81915205  0.12961443    -0.13100
C445        C  0.12073968  0.77835445  0.86704536    -0.11500
C446        C  0.15133296  0.77859576  0.89516884    -0.13100
C447        C  0.88125190  0.89026474  0.28599965    -0.11500
C448        C  0.90638363  0.85734031  0.28483175    -0.13100
C449        C  0.15576286  0.85697003  0.23581884    -0.11500
C450        C  0.12990766  0.82349412  0.23660683    -0.13100
C451        C  0.89150556  0.75444100  0.14789648    -0.11500
C452        C  0.86365810  0.74576441  0.11880202    -0.13100
C453        C  0.11926833  0.71067781  0.14267972    -0.11500
C454        C  0.13376264  0.70704631  0.10336305    -0.13100
C455        C  0.89317727  0.21973873  0.88741125    -0.11500
C456        C  0.92577444  0.21718322  0.85977091    -0.13100
C457        C  0.10042389  0.28400199  0.86741423    -0.11500
C458        C  0.12886179  0.29163482  0.89724403    -0.13100
C459        C  0.92038526  0.11370211  0.71697244    -0.11500
C460        C  0.88425439  0.09636633  0.72862379    -0.13100
C461        C  0.24330280  0.88269043  0.87230757    -0.11500
C462        C  0.25310423  0.85594159  0.90283536    -0.13100
C463        C  0.22131253  0.11575995  0.86739808    -0.11500
C464        C  0.21438307  0.14500822  0.89580736    -0.13100
C465        C  0.11698251  0.15883426  0.78997466    -0.11500
C466        C  0.14449817  0.12758071  0.78728272    -0.13100
C467        C  0.09216588  0.86903682  0.76697105    -0.11500
C468        C  0.12504468  0.89480301  0.76919255    -0.13100
C469        C  0.91851010  0.58621816  0.84079519    -0.14700
C470        C  0.93403843  0.59087836  0.79501023    -0.29900
H471        H  0.91316070  0.61798016  0.86163436     0.14300
H472        H  0.93653237  0.56053645  0.77183338     0.14900
C473        C  0.86138758  0.57698717  0.92921618    -0.14700
C474        C  0.81560223  0.58985703  0.92610067    -0.29900
H475        H  0.88661944  0.59847498  0.94804718     0.14300
H476        H  0.79095101  0.56911284  0.90577260     0.14900
C477        C  0.93844885  0.41635573  0.83556500    -0.14700
C478        C  0.92060269  0.40061666  0.79446853    -0.29900
H479        H  0.96526458  0.39645261  0.85428864     0.14300
H480        H  0.89459736  0.42084761  0.77506834     0.14900
C481        C  0.86483670  0.40280684  0.90886671    -0.14700
C482        C  0.81827483  0.39594412  0.91959787    -0.29900
H483        H  0.88889540  0.37268291  0.90828139     0.14300
H484        H  0.79315617  0.42499364  0.91681595     0.14900
C485        C  0.91128676  0.57834956  0.15832868    -0.14700
C486        C  0.91612685  0.58136621  0.20597868    -0.29900
H487        H  0.91484927  0.61028300  0.13686748     0.14300
H488        H  0.90973808  0.55075126  0.22865199     0.14900
C489        C  0.83449893  0.58010841  0.08916550    -0.14700
C490        C  0.78741033  0.58494558  0.09992657    -0.29900
H491        H  0.85302065  0.60942304  0.07182340     0.14300
H492        H  0.76865063  0.55716359  0.11934561     0.14900
C493        C  0.92572359  0.38760726  0.18103418    -0.14700
C494        C  0.92906537  0.40377453  0.13567657    -0.29900
H495        H  0.91147148  0.41035181  0.20849343     0.14300
H496        H  0.94275621  0.38040418  0.10846361     0.14900
C497        C  0.84732538  0.40591899  0.07091410    -0.14700
C498        C  0.79964934  0.39836521  0.06278532    -0.29900
H499        H  0.87091196  0.37567139  0.06838878     0.14300
H500        H  0.77452429  0.42737474  0.06592483     0.14900
C501        C  0.86766842  0.47847426  0.98041669    -0.14700
C502        C  0.84699745  0.50457134  0.01561763    -0.29900
H503        H  0.88635488  0.44680313  0.99160509     0.14300
H504        H  0.82815249  0.53655757  0.00626898     0.14900
C505        C  0.07808707  0.57061731  0.20694357    -0.14700
C506        C  0.08462044  0.56877093  0.15884774    -0.29900
H507        H  0.08748537  0.54039806  0.22875243     0.14300
H508        H  0.07878305  0.60089348  0.13840372     0.14900
C509        C  0.16937738  0.57511515  0.08820418    -0.14700
C510        C  0.21833344  0.57808689  0.08244604    -0.29900
H511        H  0.14870331  0.60698317  0.08249399     0.14300
H512        H  0.24049999  0.54768710  0.09029841     0.14900
C513        C  0.09811879  0.39533308  0.15401036    -0.14700
C514        C  0.08904022  0.39210301  0.20157673    -0.29900
H515        H  0.09520420  0.36360894  0.13280117     0.14300
H516        H  0.09497128  0.42241801  0.22401118     0.14900
C517        C  0.18123597  0.40760449  0.07870957    -0.14700
C518        C  0.20328102  0.37664173  0.10872321    -0.29900
H519        H  0.19516233  0.40915299  0.04292709     0.14300
H520        H  0.19163675  0.37353259  0.14518070     0.14900
C521        C  0.98636709  0.50381802  0.13997869    -0.14700
C522        C  0.02339543  0.47191870  0.14366380    -0.29900
H523        H  0.99677300  0.54074079  0.13690855     0.14300
H524        H  0.01342897  0.43498599  0.14625498     0.14900
C525        C  0.08136390  0.59314692  0.80437371    -0.14700
C526        C  0.08513967  0.58101827  0.85068495    -0.29900
H527        H  0.09003070  0.56741515  0.77733521     0.14300
H528        H  0.07899332  0.60805797  0.87708432     0.14900
C529        C  0.15878994  0.57307845  0.92182896    -0.14700
C530        C  0.20440029  0.58482388  0.90967407    -0.29900
H531        H  0.13637766  0.59810390  0.94074127     0.14300
H532        H  0.22650000  0.56027923  0.88980253     0.14900
C533        C  0.09216025  0.41237121  0.77119299    -0.14700
C534        C  0.10401090  0.40973776  0.81780006    -0.29900
H535        H  0.09603712  0.44539164  0.75156856     0.14300
H536        H  0.10170277  0.37566772  0.83545342     0.14900
C537        C  0.18767082  0.41131009  0.88533291    -0.14700
C538        C  0.23091750  0.41835064  0.90473269    -0.29900
H539        H  0.18049766  0.37756438  0.86903629     0.14300
H540        H  0.23823244  0.45271053  0.91999020     0.14900
C541        C  0.15330404  0.47011860  0.97507927    -0.14700
C542        C  0.15936999  0.49980076  0.01313213    -0.29900
H543        H  0.14604831  0.43308949  0.98305648     0.14300
H544        H  0.16617735  0.53654469  0.00428338     0.14900
C545        C  0.03021241  0.48481950  0.83574122    -0.14700
C546        C  0.99407158  0.51179081  0.85349578    -0.29900
H547        H  0.02064147  0.45392526  0.81586715     0.14300
H548        H  0.00385310  0.54253778  0.87380572     0.14900
C549        C  0.58224329  0.92547200  0.84427569    -0.14700
C550        C  0.59138746  0.92893915  0.79648054    -0.29900
H551        H  0.61119751  0.93243125  0.86776985     0.14300
H552        H  0.56421303  0.91979701  0.77163434     0.14900
C553        C  0.58265248  0.86207785  0.92726061    -0.14700
C554        C  0.59184939  0.81550989  0.93230976    -0.29900
H555        H  0.60871103  0.88837353  0.93720362     0.14300
H556        H  0.56698786  0.78908869  0.92005297     0.14900
C557        C  0.40695124  0.90614302  0.83871764    -0.14700
C558        C  0.40212957  0.92243039  0.79364278    -0.29900
H559        H  0.37513303  0.90151850  0.86045228     0.14300
H560        H  0.43238108  0.92474005  0.76951704     0.14900
C561        C  0.41421463  0.82582045  0.90930117    -0.14700
C562        C  0.41571661  0.77662263  0.91054788    -0.29900
H563        H  0.38120540  0.84296666  0.91972165     0.14300
H564        H  0.44691400  0.75769335  0.89798798     0.14900
C565        C  0.59170437  0.92110084  0.16299764    -0.14700
C566        C  0.59830308  0.91977902  0.21067981    -0.29900
H567        H  0.62163920  0.92917342  0.13965786     0.14300
H568        H  0.56963719  0.90901936  0.23449640     0.14900
C569        C  0.59278590  0.84226235  0.09270522    -0.14700
C570        C  0.59612094  0.79640351  0.10764518    -0.29900
H571        H  0.62046313  0.85724392  0.06999652     0.14300
H572        H  0.56971591  0.78176184  0.13201920     0.14900
C573        C  0.42103334  0.90143254  0.17307684    -0.14700
C574        C  0.41981576  0.91583294  0.21937553    -0.29900
H575        H  0.38752270  0.89382369  0.15661350     0.14300
H576        H  0.45192391  0.92075639  0.23917937     0.14900
C577        C  0.41980679  0.84628820  0.08277331    -0.14700
C578        C  0.41137414  0.79880882  0.07795527    -0.29900
H579        H  0.39136787  0.87124979  0.07600740     0.14300
H580        H  0.43856837  0.77309928  0.08657523     0.14900
C581        C  0.51667439  0.85773022  0.02025761    -0.14700
C582        C  0.48472309  0.85279534  0.98436291    -0.29900
H583        H  0.55299354  0.86408249  0.00962641     0.14300
H584        H  0.44806450  0.84703111  0.99476846     0.14900
C585        C  0.59677270  0.08911343  0.84868902    -0.14700
C586        C  0.60410505  0.07786970  0.80245722    -0.29900
H587        H  0.62694178  0.08890877  0.87183369     0.14300
H588        H  0.57530618  0.08060278  0.77780706     0.14900
C589        C  0.59088139  0.16286565  0.92236157    -0.14700
C590        C  0.60685698  0.20805877  0.91071763    -0.29900
H591        H  0.61422300  0.13943126  0.94161238     0.14300
H592        H  0.58467056  0.23224455  0.89103943     0.14900
C593        C  0.40806516  0.07409168  0.80128996    -0.14700
C594        C  0.41875828  0.07623042  0.84813433    -0.29900
H595        H  0.43373648  0.08605838  0.77481991     0.14300
H596        H  0.39166136  0.06581307  0.87383293     0.14900
C597        C  0.41443992  0.15523329  0.91442330    -0.14700
C598        C  0.40676914  0.20296496  0.91373781    -0.29900
H599        H  0.38530360  0.13142305  0.92341234     0.14300
H600        H  0.43479797  0.22719783  0.90247580     0.14900
C601        C  0.51630668  0.01852489  0.85470946    -0.14700
C602        C  0.48387715  0.98275388  0.84726605    -0.29900
H603        H  0.55175494  0.00723677  0.86301907     0.14300
H604        H  0.44787659  0.99280947  0.84032834     0.14900
C605        C  0.59445360  0.09393868  0.17069037    -0.14700
C606        C  0.59617341  0.08595602  0.21865580    -0.29900
H607        H  0.62675679  0.08809517  0.15022526     0.14300
H608        H  0.56570939  0.09356830  0.24125679     0.14900
C609        C  0.59671077  0.17191424  0.09667305    -0.14700
C610        C  0.59826509  0.21789074  0.08090397    -0.29900
H611        H  0.63025603  0.15511138  0.10391115     0.14300
H612        H  0.56542734  0.23643771  0.07376998     0.14900
C613        C  0.42068014  0.07338807  0.14711474    -0.14700
C614        C  0.40962784  0.06778766  0.19389808    -0.29900
H615        H  0.39373922  0.06546191  0.12158747     0.14300
H616        H  0.43512865  0.07837493  0.21992947     0.14900
C617        C  0.40468898  0.19745002  0.07933501    -0.14700
C618        C  0.42076658  0.15132418  0.07484735    -0.29900
H619        H  0.42614126  0.22296174  0.09781621     0.14300
H620        H  0.39748750  0.12586076  0.05852736     0.14900
C621        C  0.52306334  0.01968255  0.14976065    -0.14700
C622        C  0.49263228  0.98212700  0.15666662    -0.29900
H623        H  0.55992002  0.01024319  0.14353373     0.14300
H624        H  0.45572430  0.99069986  0.16241371     0.14900
C625        C  0.52421939  0.14997009  0.01987766    -0.14700
C626        C  0.49367148  0.15744046  0.98325335    -0.29900
H627        H  0.56027371  0.14040948  0.01011243     0.14300
H628        H  0.45784555  0.16699464  0.99326354     0.14900
C629        C  0.92397594  0.84954394  0.58365274    -0.05100
C630        C  0.92789212  0.80256172  0.59503816    -0.29900
H631        H  0.92974973  0.87596210  0.61044787     0.14300
H632        H  0.92073689  0.77533991  0.56934979     0.14900
C633        C  0.85020640  0.92311568  0.58043907    -0.14700
C634        C  0.80289529  0.91987904  0.59281349    -0.29900
H635        H  0.87480602  0.93624622  0.60613903     0.14300
H636        H  0.77761207  0.90608383  0.56809194     0.14900
C637        C  0.78414142  0.91488828  0.41709821    -0.14700
C638        C  0.82951911  0.89660717  0.41355912    -0.29900
H639        H  0.76685783  0.91952979  0.45119914     0.14300
H640        H  0.84447926  0.89019602  0.37886974     0.14900
C641        C  0.91948341  0.76909471  0.41909629    -0.14700
C642        C  0.90872425  0.81717010  0.41531332    -0.29900
H643        H  0.91509907  0.75092690  0.45271742     0.14300
H644        H  0.91150990  0.83343501  0.38077203     0.14900
C645        C  0.91903140  0.16709439  0.58235128    -0.14700
C646        C  0.93033565  0.21475651  0.58306337    -0.29900
H647        H  0.92276533  0.14698269  0.61471829     0.14300
H648        H  0.92489042  0.23716205  0.55242188     0.14900
C649        C  0.84507052  0.08773854  0.58672906    -0.14700
C650        C  0.79882992  0.07222777  0.59147100    -0.29900
H651        H  0.86614785  0.08864095  0.61821175     0.14300
H652        H  0.77528983  0.07343191  0.56175655     0.14900
C653        C  0.93255743  0.14973463  0.40864330    -0.14700
C654        C  0.93072569  0.19676322  0.39529202    -0.29900
H655        H  0.94585729  0.12412361  0.38327360     0.14300
H656        H  0.91389435  0.22265486  0.41819187     0.14900
C657        C  0.85498275  0.07728654  0.41181530    -0.14700
C658        C  0.80805655  0.08427373  0.40131276    -0.29900
H659        H  0.87863539  0.06239977  0.38520601     0.14300
H660        H  0.78447589  0.10119853  0.42671120     0.14900
C661        C  0.85910175  0.01598214  0.51013915    -0.14700
C662        C  0.85505229  0.97846804  0.47940122    -0.29900
H663        H  0.86273153  0.00593556  0.54658581     0.14300
H664        H  0.85224394  0.98749756  0.44247828     0.14900
C665        C  0.16022623  0.09257671  0.58977366    -0.14700
C666        C  0.20656176  0.08131234  0.59953784    -0.29900
H667        H  0.13526740  0.09595189  0.61913710     0.14300
H668        H  0.23312048  0.08045660  0.57139915     0.14900
C669        C  0.08161414  0.16011523  0.57345443    -0.14700
C670        C  0.09872557  0.20278936  0.58788847    -0.29900
H671        H  0.05630225  0.14098224  0.59583279     0.14300
H672        H  0.12380446  0.22250583  0.56581803     0.14900
C673        C  0.09975363  0.18267101  0.38536579    -0.14700
C674        C  0.10145938  0.13609196  0.39916330    -0.29900
H675        H  0.10693906  0.21006529  0.41088394     0.14300
H676        H  0.09663862  0.10885211  0.37290306     0.14900
C677        C  0.16824053  0.05814445  0.41762848    -0.14700
C678        C  0.21383016  0.06507410  0.40190463    -0.29900
H679        H  0.14417995  0.03688586  0.39716827     0.14300
H680        H  0.23781987  0.08722152  0.42151037     0.14900
C681        C  0.02673869  0.13820678  0.47635126    -0.14700
C682        C  0.98992501  0.15480483  0.50385004    -0.29900
H683        H  0.01644772  0.12042411  0.44445000     0.14300
H684        H  0.99978100  0.17201223  0.53592143     0.14900
C685        C  0.09107457  0.83937270  0.59637260    -0.14700
C686        C  0.08504737  0.79106796  0.60084067    -0.29900
H687        H  0.08536727  0.86124494  0.62720776     0.14300
H688        H  0.09319272  0.76766433  0.57166023     0.14900
C689        C  0.15639489  0.92363288  0.59278558    -0.14700
C690        C  0.20291647  0.93363735  0.60025837    -0.29900
H691        H  0.13086889  0.92865346  0.62137767     0.14300
H692        H  0.22972677  0.92633187  0.57336429     0.14900
C693        C  0.08308519  0.83928959  0.42456120    -0.14700
C694        C  0.09512185  0.79448007  0.41117676    -0.29900
H695        H  0.06206181  0.86185118  0.40192116     0.14300
H696        H  0.11613761  0.77179568  0.43371286     0.14900
C697        C  0.20925616  0.91417235  0.40922691    -0.14700
C698        C  0.16180962  0.90660820  0.41721099    -0.29900
H699        H  0.23426723  0.91019454  0.43752434     0.14300
H700        H  0.13810640  0.90820618  0.38761605     0.14900
C701        C  0.14913581  0.01377386  0.51982609    -0.14700
C702        C  0.16649071  0.97550790  0.49604251    -0.29900
H703        H  0.12697588  0.00612622  0.55063498     0.14300
H704        H  0.18859278  0.98293272  0.46550359     0.14900
C705        C  0.02001523  0.85071407  0.51866450    -0.14700
C706        C  0.98445407  0.84225835  0.48695780    -0.29900
H707        H  0.00835261  0.86014354  0.55367415     0.14300
H708        H  0.99529168  0.83312108  0.45161435     0.14900
loop_ 
_geom_bond_atom_site_label_1 
_geom_bond_atom_site_label_2 
_geom_bond_distance 
_geom_bond_site_symmetry_2 
_ccdc_geom_bond_type 
C1            C2   1.425       .  A
C1            C6   1.421       .  A
C1          C705   1.560       .  S
C2            C3   1.444       .  A
C2          C693   1.474       .  S
C3            C4   1.423       .  A
C3          C698   1.501       .  S
C4            C5   1.429       .  A
C4          C702   1.540       .  S
C5            C6   1.449       .  A
C5          C689   1.494       .  S
C6          C685   1.504       .  S
C7            C8   1.431       .  A
C7           C12   1.421       .  A
C7          C701   1.539       .  S
C8            C9   1.443       .  A
C8          C677   1.488       .  S
C9           C10   1.430       .  A
C9          C674   1.516       .  S
C10          C11   1.445       .  A
C10         C681   1.557       .  S
C11          C12   1.450       .  A
C11         C669   1.493       .  S
C12         C665   1.519       .  S
C13          C14   1.434       .  A
C13          C18   1.431       .  A
C13         C682   1.557       .  S
C14          C15   1.457       .  A
C14         C653   1.511       .  S
C15          C16   1.439       .  A
C15         C657   1.507       .  S
C16          C17   1.439       .  A
C16         C661   1.567       .  S
C17          C18   1.462       .  A
C17         C649   1.519       .  S
C18         C645   1.519       .  S
C19          C20   1.434       .  A
C19          C24   1.428       .  A
C19         C706   1.562       .  S
C20          C21   1.476       .  A
C20         C642   1.533       .  S
C21          C22   1.438       .  A
C21         C638   1.510       .  S
C22          C23   1.422       .  A
C22         C662   1.569       .  S
C23          C24   1.448       .  A
C23         C633   1.507       .  S
C24         C629   1.488       .  S
C25          C26   1.444       .  A
C25          C30   1.445       .  A
C25         C625   1.562       .  S
C26          C27   1.462       .  A
C26         C618   1.531       .  S
C27          C28   1.444       .  A
C27         C613   1.507       .  S
C28          C29   1.430       .  A
C28         C621   1.561       .  S
C29          C30   1.458       .  A
C29         C605   1.524       .  S
C30         C609   1.523       .  S
C31          C32   1.434       .  A
C31          C36   1.433       .  A
C31         C626   1.562       .  S
C32          C33   1.447       .  A
C32         C597   1.491       .  S
C33          C34   1.427       .  A
C33         C594   1.510       .  S
C34          C35   1.440       .  A
C34         C601   1.552       .  S
C35          C36   1.455       .  A
C35         C585   1.504       .  S
C36         C589   1.514       .  S
C37          C38   1.418       .  A
C37          C42   1.424       .  A
C37         C622   1.552       .  S
C38          C39   1.454       .  A
C38         C573   1.499       .  S
C39          C40   1.432       .  A
C39         C577   1.497       .  S
C40          C41   1.429       .  A
C40         C581   1.558       .  S
C41          C42   1.444       .  A
C41         C569   1.495       .  S
C42         C565   1.494       .  S
C43          C44   1.415       .  A
C43          C48   1.441       .  A
C43         C602   1.550       .  S
C44          C45   1.443       .  A
C44         C549   1.516       .  S
C45          C46   1.434       .  A
C45         C553   1.469       .  S
C46          C47   1.426       .  A
C46         C582   1.567       .  S
C47          C48   1.457       .  A
C47         C561   1.521       .  S
C48         C557   1.495       .  S
C49          C50   1.426       .  A
C49          C54   1.421       .  A
C49         C545   1.536       .  S
C50          C51   1.454       .  A
C50         C534   1.507       .  S
C51          C52   1.436       .  A
C51         C537   1.512       .  S
C52          C53   1.423       .  A
C52         C541   1.569       .  S
C53          C54   1.439       .  A
C53         C529   1.482       .  S
C54         C526   1.503       .  S
C55          C56   1.440       .  A
C55          C60   1.431       .  A
C55         C542   1.569       .  S
C56          C57   1.458       .  A
C56         C517   1.517       .  S
C57          C58   1.436       .  A
C57         C513   1.506       .  S
C58          C59   1.440       .  A
C58         C522   1.568       .  S
C59          C60   1.463       .  A
C59         C506   1.510       .  S
C60         C509   1.525       .  S
C61          C62   1.436       .  A
C61          C66   1.442       .  A
C61         C521   1.573       .  S
C62          C63   1.442       .  A
C62         C485   1.491       .  S
C63          C64   1.421       .  A
C63         C489   1.508       .  S
C64          C65   1.421       .  A
C64         C502   1.536       .  S
C65          C66   1.458       .  A
C65         C497   1.521       .  S
C66         C494   1.493       .  S
C67          C68   1.407       .  A
C67          C72   1.399       .  A
C67         C546   1.531       .  S
C68          C69   1.431       .  A
C68         C477   1.453       .  S
C69          C70   1.415       .  A
C69         C481   1.488       .  S
C70          C71   1.425       .  A
C70         C501   1.541       .  S
C71          C72   1.436       .  A
C71         C473   1.456       .  S
C72         C469   1.491       .  S
O73          C81   1.239       .  A
O73         Co93   1.890   1_565  S
O74          C82   1.238       .  A
O74         Co94   1.878       .  S
O75          C83   1.270       .  A
O75         Co95   2.020       .  S
O76          C84   1.271       .  A
O76         Co96   2.014       .  S
O77          C83   1.241       .  A
O77         Co94   1.907   1_565  S
O78          C84   1.241       .  A
O78         Co93   1.900       .  S
O79          C82   1.275       .  A
O79         Co96   2.025       .  S
O80          C81   1.276       .  A
O80         Co95   2.031       .  S
C81         C468   1.393       .  S
C82         C463   1.387       .  S
C83         C461   1.393       .  S
C84         C466   1.394       .  S
O85          C98   1.273       .  A
O85         Co93   1.975       .  S
O86          C99   1.271       .  A
O86         Co94   1.959   1_565  S
O87         C100   1.294       .  A
O87         Co95   2.034       .  S
O88         C101   1.304       .  A
O88         Co96   2.060       .  S
O89         C101   1.276       .  A
O89         Co94   1.982       .  S
O90         C100   1.275       .  A
O90         Co93   1.978   1_565  S
O91          C98   1.308       .  A
O91         Co96   2.073       .  S
O92          C99   1.298       .  A
O92         Co95   2.047       .  S
Co93         O97   1.863       .  S
Co94         O97   1.858       .  S
Co95         O97   2.095   1_565  S
Co96         O97   2.090       .  S
C98         C666   1.511       .  S
C99         C558   1.491       .  S
C100        C690   1.494       .  S
C101        C593   1.513       .  S
O102        C110   1.255       .  A
O102       Co122   1.943       .  S
O103        C111   1.264       .  A
O103       Co123   1.980       .  S
O104        C112   1.268       .  A
O104       Co124   2.011       .  S
O105        C113   1.292       .  A
O105       Co125   2.060       .  S
O106        C112   1.273       .  A
O106       Co123   2.014   1_455  S
O107        C113   1.269       .  A
O107       Co122   1.847   1_655  S
O108        C111   1.258       .  A
O108       Co125   1.999       .  S
O109        C110   1.266       .  A
O109       Co124   1.969       .  S
C110        C465   1.386       .  S
C111        C456   1.419       .  S
C112        C457   1.425       .  S
C113        C459   1.368       .  S
O114        C127   1.258       .  A
O114       Co122   2.012   1_655  S
O115        C128   1.266       .  A
O115       Co123   1.991   1_455  S
O116        C129   1.292       .  A
O116       Co124   2.045       .  S
O117        C130   1.318       .  A
O117       Co125   2.128       .  S
O118        C130   1.264       .  A
O118       Co123   1.840       .  S
O119        C129   1.270       .  A
O119       Co122   1.979       .  S
O120        C127   1.279       .  A
O120       Co125   2.014       .  S
O121        C128   1.287       .  A
O121       Co124   2.018       .  S
Co122       O126   1.878       .  S
Co123       O126   1.853   1_655  S
Co124       O126   2.058       .  S
Co125       O126   2.156   1_655  S
C127        C646   1.507       .  S
C128        C533   1.501       .  S
C129        C670   1.498       .  S
C130        C478   1.474       .  S
O131        C139   1.332       .  A
O131       Co151   2.148       .  S
O132        C140   1.301       .  A
O132       Co152   2.065       .  S
O133        C141   1.259       .  A
O133       Co153   1.988   1_655  S
O134        C142   1.277       .  A
O134       Co154   2.004   1_455  S
O135        C141   1.292       .  A
O135       Co152   2.032       .  S
O136        C142   1.304       .  A
O136       Co151   2.052       .  S
O137        C140   1.269       .  A
O137       Co154   1.945       .  S
O138        C139   1.281       .  A
O138       Co153   1.846       .  S
C139        C694   1.490       .  S
C140        C486   1.496       .  S
C141        C641   1.526       .  S
C142        C505   1.512       .  S
O143        C156   1.284       .  A
O143       Co151   2.069       .  S
O144        C157   1.266       .  A
O144       Co152   1.974       .  S
O145        C158   1.247       .  A
O145       Co153   1.951       .  S
O146        C159   1.245       .  A
O146       Co154   1.907       .  S
O147        C159   1.273       .  A
O147       Co152   2.009       .  S
O148        C158   1.263       .  A
O148       Co151   2.008       .  S
O149        C156   1.246       .  A
O149       Co154   1.894   1_455  S
O150        C157   1.251       .  A
O150       Co153   1.902   1_655  S
Co151       O155   2.050   1_455  S
Co152       O155   2.049       .  S
Co153       O155   1.855   1_455  S
Co154       O155   1.849       .  S
C156        C453   1.396       .  S
C157        C448   1.372       .  S
C158        C450   1.411       .  S
C159        C451   1.388       .  S
O160        C168   1.278       .  A
O160       Co180   1.871       .  S
O161        C169   1.272       .  A
O161       Co181   1.969       .  S
O162        C170   1.296       .  A
O162       Co182   2.054       .  S
O163        C171   1.289       .  A
O163       Co183   2.036       .  S
O164        C170   1.261       .  A
O164       Co181   2.000   1_554  S
O165        C171   1.254       .  A
O165       Co180   1.971   1_556  S
O166        C169   1.297       .  A
O166       Co183   2.044       .  S
O167        C168   1.329       .  A
O167       Co182   2.142       .  S
C168        C578   1.502       .  S
C169        C530   1.492       .  S
C170        C510   1.517       .  S
C171        C562   1.517       .  S
O172        C185   1.258       .  A
O172       Co180   1.945   1_556  S
O173        C186   1.275       .  A
O173       Co181   1.903   1_554  S
O174        C187   1.278       .  A
O174       Co182   1.901       .  S
O175        C188   1.267       .  A
O175       Co183   1.987       .  S
O176        C188   1.260       .  A
O176       Co181   1.959       .  S
O177        C187   1.282       .  A
O177       Co180   2.012       .  S
O178        C185   1.264       .  A
O178       Co183   1.989       .  S
O179        C186   1.276       .  A
O179       Co182   2.070       .  S
Co180       O184   1.976   1_554  S
Co181       O184   1.901       .  S
Co182       O184   2.035   1_554  S
Co183       O184   2.048       .  S
C185        C462   1.395       .  S
C186        C454   1.397       .  S
C187        C444   1.385       .  S
C188        C446   1.405       .  S
O189        C197   1.278       .  A
O189       Co209   2.011       .  S
O190        C198   1.279       .  A
O190       Co210   1.868       .  S
O191        C199   1.275       .  A
O191       Co211   2.004       .  S
O192        C200   1.286       .  A
O192       Co212   2.038       .  S
O193        C199   1.260       .  A
O193       Co210   2.007   1_455  S
O194        C200   1.261       .  A
O194       Co209   1.993   1_655  S
O195        C198   1.327       .  A
O195       Co212   2.141       .  S
O196        C197   1.296       .  A
O196       Co211   2.045       .  S
C197        C673   1.509       .  S
C198        C493   1.500       .  S
C199        C514   1.499       .  S
C200        C654   1.511       .  S
O201        C214   1.275       .  A
O201       Co209   1.886   1_655  S
O202        C215   1.260       .  A
O202       Co210   1.945   1_455  S
O203        C216   1.259       .  A
O203       Co211   1.954       .  S
O204        C217   1.271       .  A
O204       Co212   1.904       .  S
O205        C217   1.294       .  A
O205       Co210   2.065       .  S
O206        C216   1.253       .  A
O206       Co209   1.956       .  S
O207        C214   1.294       .  A
O207       Co212   2.118       .  S
O208        C215   1.278       .  A
O208       Co211   2.028       .  S
Co209       O213   1.899       .  S
Co210       O213   1.998   1_655  S
Co211       O213   2.039       .  S
Co212       O213   2.009   1_655  S
C214        C440   1.418       .  S
C215        C435   1.415       .  S
C216        C441   1.387       .  S
C217        C438   1.419       .  S
O218        C226   1.272       .  A
O218       Co238   1.964       .  S
O219        C227   1.287       .  A
O219       Co239   2.023   1_545  S
O220        C228   1.271       .  A
O220       Co240   2.028       .  S
O221        C229   1.298       .  A
O221       Co241   2.039       .  S
O222        C228   1.239       .  A
O222       Co239   1.945       .  S
O223        C229   1.275       .  A
O223       Co238   1.974   1_545  S
O224        C227   1.301       .  A
O224       Co241   2.039       .  S
O225        C226   1.297       .  A
O225       Co240   2.044       .  S
C226        C697   1.495       .  S
C227        C614   1.506       .  S
C228        C574   1.493       .  S
C229        C678   1.499       .  S
O230        C243   1.241       .  A
O230       Co238   1.889   1_545  S
O231        C244   1.285       .  A
O231       Co239   1.872       .  S
O232        C245   1.262       .  A
O232       Co240   2.004       .  S
O233        C246   1.266       .  A
O233       Co241   1.978       .  S
O234        C246   1.264       .  A
O234       Co239   1.955   1_545  S
O235        C245   1.247       .  A
O235       Co238   1.939       .  S
O236        C243   1.277       .  A
O236       Co241   2.037       .  S
O237        C244   1.291       .  A
O237       Co240   2.058       .  S
Co238       O242   1.892       .  S
Co239       O242   1.902       .  S
Co240       O242   2.106       .  S
Co241       O242   2.052   1_545  S
C243        C442   1.401       .  S
C244        C443   1.387       .  S
C245        C449   1.412       .  S
C246        C434   1.402       .  S
O247        C255   1.287       .  A
O247       Co267   2.061       .  S
O248        C256   1.266       .  A
O248       Co268   2.040       .  S
O249        C257   1.274       .  A
O249       Co269   1.986       .  S
O250        C258   1.244       .  A
O250       Co270   1.931       .  S
O251        C257   1.292       .  A
O251       Co268   2.025       .  S
O252        C258   1.271       .  A
O252       Co267   2.075       .  S
O253        C256   1.245       .  A
O253       Co270   1.934   1_556  S
O254        C255   1.257       .  A
O254       Co269   1.997   1_554  S
C255        C617   1.529       .  S
C256        C538   1.495       .  S
C257        C598   1.490       .  S
C258        C518   1.516       .  S
O259        C272   1.249       .  A
O259       Co267   1.983       .  S
O260        C273   1.254       .  A
O260       Co268   1.969       .  S
O261        C274   1.267       .  A
O261       Co269   2.007   1_554  S
O262        C275   1.258       .  A
O262       Co270   1.989   1_556  S
O263        C275   1.246       .  A
O263       Co268   1.945       .  S
O264        C274   1.266       .  A
O264       Co267   1.937       .  S
O265        C272   1.254       .  A
O265       Co270   1.986       .  S
O266        C273   1.234       .  A
O266       Co269   1.931       .  S
Co267       O271   2.031   1_554  S
Co268       O271   2.138       .  S
Co269       O271   2.047       .  S
Co270       O271   2.086   1_554  S
C272        C436   1.411       .  S
C273        C464   1.378       .  S
C274        C433   1.409       .  S
C275        C458   1.424       .  S
O276        C284   1.266       .  A
O276       Co296   1.987   1_545  S
O277        C285   1.265       .  A
O277       Co297   1.974   1_565  S
O278        C286   1.275       .  A
O278       Co298   2.029       .  S
O279        C287   1.271       .  A
O279       Co299   2.009       .  S
O280        C286   1.250       .  A
O280       Co297   2.003       .  S
O281        C287   1.248       .  A
O281       Co296   1.986       .  S
O282        C285   1.294       .  A
O282       Co299   2.053       .  S
O283        C284   1.296       .  A
O283       Co298   2.062       .  S
C284        C658   1.512       .  S
C285        C566   1.505       .  S
C286        C606   1.515       .  S
C287        C637   1.499       .  S
O288        C301   1.267       .  A
O288       Co296   1.822       .  S
O289        C302   1.264       .  A
O289       Co297   1.810       .  S
O290        C303   1.257       .  A
O290       Co298   1.995       .  S
O291        C304   1.253       .  A
O291       Co299   1.972       .  S
O292        C304   1.249       .  A
O292       Co297   1.975   1_565  S
O293        C303   1.243       .  A
O293       Co296   1.959   1_545  S
O294        C301   1.302       .  A
O294       Co299   2.095       .  S
O295        C302   1.306       .  A
O295       Co298   2.110       .  S
Co296       O300   1.923       .  S
Co297       O300   1.922   1_545  S
Co298       O300   2.130   1_545  S
Co299       O300   2.124       .  S
C301        C447   1.371       .  S
C302        C430   1.371       .  S
C303        C439   1.417       .  S
C304        C432   1.413       .  S
O305        C313   1.295       .  A
O305       Co325   2.118   1_554  S
O306        C314   1.283       .  A
O306       Co326   2.014   1_556  S
O307        C315   1.298       .  A
O307       Co327   2.066       .  S
O308        C316   1.296       .  A
O308       Co328   2.098       .  S
O309        C315   1.263       .  A
O309       Co326   1.975       .  S
O310        C316   1.246       .  A
O310       Co325   1.944       .  S
O311        C314   1.287       .  A
O311       Co328   1.992       .  S
O312        C313   1.286       .  A
O312       Co327   1.946       .  S
C313        C610   1.507       .  S
C314        C482   1.477       .  S
C315        C498   1.522       .  S
C316        C590   1.522       .  S
O317        C330   1.266       .  A
O317       Co325   1.957       .  S
O318        C331   1.267       .  A
O318       Co326   1.978       .  S
O319        C332   1.286       .  A
O319       Co327   2.103       .  S
O320        C333   1.279       .  A
O320       Co328   2.041       .  S
O321        C333   1.255       .  A
O321       Co326   1.947   1_556  S
O322        C332   1.261       .  A
O322       Co325   1.856   1_554  S
O323        C330   1.270       .  A
O323       Co328   1.979       .  S
O324        C331   1.271       .  A
O324       Co327   1.998       .  S
Co325       O329   1.959       .  S
Co326       O329   2.002   1_554  S
Co327       O329   1.980   1_554  S
Co328       O329   2.037       .  S
C330        C428   1.394       .  S
C331        C437   1.420       .  S
C332        C429   1.371       .  S
C333        C455   1.428       .  S
O334        C342   1.253       .  A
O334       Co354   1.950   1_455  S
O335        C343   1.278       .  A
O335       Co355   1.960   1_655  S
O336        C344   1.300       .  A
O336       Co356   2.041       .  S
O337        C345   1.331       .  A
O337       Co357   2.142       .  S
O338        C344   1.283       .  A
O338       Co355   1.993       .  S
O339        C345   1.278       .  A
O339       Co354   1.855       .  S
O340        C343   1.304       .  A
O340       Co357   2.029       .  S
O341        C342   1.291       .  A
O341       Co356   2.056       .  S
C342        C686   1.500       .  S
C343        C470   1.483       .  S
C344        C525   1.499       .  S
C345        C630   1.494       .  S
O346        C359   1.263       .  A
O346       Co354   1.946       .  S
O347        C360   1.248       .  A
O347       Co355   1.919       .  S
O348        C361   1.271       .  A
O348       Co356   1.974       .  S
O349        C362   1.268       .  A
O349       Co357   2.012       .  S
O350        C362   1.252       .  A
O350       Co355   1.929   1_655  S
O351        C361   1.280       .  A
O351       Co354   1.993   1_455  S
O352        C359   1.266       .  A
O352       Co357   1.992       .  S
O353        C360   1.274       .  A
O353       Co356   2.023       .  S
Co354       O358   1.804   1_655  S
Co355       O358   1.842       .  S
Co356       O358   2.043       .  S
Co357       O358   2.117   1_655  S
C359        C425   1.393       .  S
C360        C445   1.409       .  S
C361        C467   1.389       .  S
C362        C424   1.403       .  S
O363        C371   1.305       .  A
O363       Co383   2.055       .  S
O364        C372   1.310       .  A
O364       Co384   2.069       .  S
O365        C373   1.269       .  A
O365       Co385   1.957       .  S
O366        C374   1.275       .  A
O366       Co386   1.977   1_545  S
O367        C373   1.305       .  A
O367       Co384   2.077       .  S
O368        C374   1.299       .  A
O368       Co383   2.050       .  S
O369        C372   1.274       .  A
O369       Co386   1.970       .  S
O370        C371   1.275       .  A
O370       Co385   1.994   1_545  S
C371        C650   1.509       .  S
C372        C550   1.517       .  S
C373        C634   1.512       .  S
C374        C586   1.497       .  S
O375        C388   1.276       .  A
O375       Co383   2.027       .  S
O376        C389   1.279       .  A
O376       Co384   2.043       .  S
O377        C390   1.233       .  A
O377       Co385   1.886   1_545  S
O378        C391   1.247       .  A
O378       Co386   1.916       .  S
O379        C391   1.266       .  A
O379       Co384   2.008       .  S
O380        C390   1.266       .  A
O380       Co383   2.012       .  S
O381        C388   1.241       .  A
O381       Co386   1.899   1_545  S
O382        C389   1.237       .  A
O382       Co385   1.887       .  S
Co383       O387   2.107   1_545  S
Co384       O387   2.099       .  S
Co385       O387   1.841       .  S
Co386       O387   1.861       .  S
C388        C427   1.398       .  S
C389        C426   1.399       .  S
C390        C460   1.371       .  S
C391        C421   1.396       .  S
O392        C400   1.266       .  A
O392       Co412   1.980       .  S
O393        C401   1.250       .  A
O393       Co413   1.909   1_556  S
O394        C402   1.260       .  A
O394       Co414   1.932       .  S
O395        C403   1.299       .  A
O395       Co415   2.081       .  S
O396        C402   1.262       .  A
O396       Co413   1.963       .  S
O397        C403   1.250       .  A
O397       Co412   1.908   1_556  S
O398        C401   1.300       .  A
O398       Co415   2.092       .  S
O399        C400   1.266       .  A
O399       Co414   1.967       .  S
C400        C431   1.420       .  S
C401        C423   1.404       .  S
C402        C452   1.391       .  S
C403        C422   1.397       .  S
O404        C417   1.274       .  A
O404       Co412   1.845   1_556  S
O405        C418   1.261       .  A
O405       Co413   1.997       .  S
O406        C419   1.268       .  A
O406       Co414   1.992       .  S
O407        C420   1.315       .  A
O407       Co415   2.149       .  S
O408        C420   1.270       .  A
O408       Co413   1.831   1_556  S
O409        C419   1.261       .  A
O409       Co412   1.990       .  S
O410        C417   1.315       .  A
O410       Co415   2.141       .  S
O411        C418   1.271       .  A
O411       Co414   2.004       .  S
Co412       O416   1.889       .  S
Co413       O416   1.878       .  S
Co414       O416   1.974       .  S
Co415       O416   2.100   1_556  S
C417        C554   1.467       .  S
C418        C490   1.497       .  S
C419        C570   1.488       .  S
C420        C474   1.469       .  S
C421        C422   1.182       .  T
C423        C424   1.186       .  T
C425        C426   1.183       .  T
C427        C428   1.182       .  T
C429        C430   1.169       .  T
C431        C432   1.195       .  T
C433        C434   1.189       .  T
C435        C436   1.192       .  T
C437        C438   1.196       .  T
C439        C440   1.197       .  T
C441        C442   1.182       .  T
C443        C444   1.182       .  T
C445        C446   1.188       .  T
C447        C448   1.168       .  T
C449        C450   1.192       .  T
C451        C452   1.179       .  T
C453        C454   1.188       .  T
C455        C456   1.200       .  T
C457        C458   1.200       .  T
C459        C460   1.170       .  T
C461        C462   1.182       .  T
C463        C464   1.173       .  T
C465        C466   1.176       .  T
C467        C468   1.180       .  T
C469        C470   1.370       .  D
C469        H471   1.087       .  S
C470        H472   1.085       .  S
C473        C474   1.345       .  D
C473        H475   1.086       .  S
C474        H476   1.086       .  S
C477        C478   1.359       .  D
C477        H479   1.087       .  S
C478        H480   1.085       .  S
C481        C482   1.355       .  D
C481        H483   1.087       .  S
C482        H484   1.086       .  S
C485        C486   1.368       .  D
C485        H487   1.086       .  S
C486        H488   1.085       .  S
C489        C490   1.364       .  D
C489        H491   1.086       .  S
C490        H492   1.085       .  S
C493        C494   1.366       .  D
C493        H495   1.085       .  S
C494        H496   1.086       .  S
C497        C498   1.385       .  D
C497        H499   1.083       .  S
C498        H500   1.085       .  S
C501        C502   1.368   1_556  D
C501        H503   1.085       .  S
C502        H504   1.080       .  S
C505        C506   1.378       .  D
C505        H507   1.085       .  S
C506        H508   1.086       .  S
C509        C510   1.389       .  D
C509        H511   1.084       .  S
C510        H512   1.085       .  S
C513        C514   1.374       .  D
C513        H515   1.087       .  S
C514        H516   1.085       .  S
C517        C518   1.373       .  D
C517        H519   1.084       .  S
C518        H520   1.084       .  S
C521        C522   1.383   1_655  D
C521        H523   1.083       .  S
C522        H524   1.079       .  S
C525        C526   1.364       .  D
C525        H527   1.086       .  S
C526        H528   1.086       .  S
C529        C530   1.365       .  D
C529        H531   1.086       .  S
C530        H532   1.086       .  S
C533        C534   1.375       .  D
C533        H535   1.085       .  S
C534        H536   1.081       .  S
C537        C538   1.363       .  D
C537        H539   1.082       .  S
C538        H540   1.086       .  S
C541        C542   1.387   1_556  D
C541        H543   1.084       .  S
C542        H544   1.080       .  S
C545        C546   1.363   1_455  D
C545        H547   1.079       .  S
C546        H548   1.084   1_655  S
C549        C550   1.381       .  D
C549        H551   1.084       .  S
C550        H552   1.085       .  S
C553        C554   1.345       .  D
C553        H555   1.086       .  S
C554        H556   1.087       .  S
C557        C558   1.367       .  D
C557        H559   1.086       .  S
C558        H560   1.085       .  S
C561        C562   1.387       .  D
C561        H563   1.086       .  S
C562        H564   1.085       .  S
C565        C566   1.372       .  D
C565        H567   1.086       .  S
C566        H568   1.085       .  S
C569        C570   1.361       .  D
C569        H571   1.086       .  S
C570        H572   1.086       .  S
C573        C574   1.381       .  D
C573        H575   1.085       .  S
C574        H576   1.085       .  S
C577        C578   1.367       .  D
C577        H579   1.086       .  S
C578        H580   1.085       .  S
C581        C582   1.383   1_554  D
C581        H583   1.076       .  S
C582        H584   1.081       .  S
C585        C586   1.367       .  D
C585        H587   1.086       .  S
C586        H588   1.086       .  S
C589        C590   1.386       .  D
C589        H591   1.085       .  S
C590        H592   1.085       .  S
C593        C594   1.373       .  D
C593        H595   1.085       .  S
C594        H596   1.085       .  S
C597        C598   1.362       .  D
C597        H599   1.085       .  S
C598        H600   1.086       .  S
C601        C602   1.381   1_545  D
C601        H603   1.079       .  S
C602        H604   1.076       .  S
C605        C606   1.382       .  D
C605        H607   1.084       .  S
C606        H608   1.085       .  S
C609        C610   1.368       .  D
C609        H611   1.081       .  S
C610        H612   1.085       .  S
C613        C614   1.368       .  D
C613        H615   1.086       .  S
C614        H616   1.086       .  S
C617        C618   1.383       .  D
C617        H619   1.085       .  S
C618        H620   1.086       .  S
C621        C622   1.372   1_545  D
C621        H623   1.084       .  S
C622        H624   1.078       .  S
C625        C626   1.380   1_554  D
C625        H627   1.083       .  S
C626        H628   1.079       .  S
C629        C630   1.365       .  D
C629        H631   1.084       .  S
C630        H632   1.085       .  S
C633        C634   1.375       .  D
C633        H635   1.085       .  S
C634        H636   1.085       .  S
C637        C638   1.382       .  D
C637        H639   1.085       .  S
C638        H640   1.082       .  S
C641        C642   1.392       .  D
C641        H643   1.085       .  S
C642        H644   1.082       .  S
C645        C646   1.381       .  D
C645        H647   1.084       .  S
C646        H648   1.085       .  S
C649        C650   1.378       .  D
C649        H651   1.085       .  S
C650        H652   1.085       .  S
C653        C654   1.377       .  D
C653        H655   1.086       .  S
C654        H656   1.085       .  S
C657        C658   1.376       .  D
C657        H659   1.086       .  S
C658        H660   1.085       .  S
C661        C662   1.384   1_545  D
C661        H663   1.079       .  S
C662        H664   1.083       .  S
C665        C666   1.378       .  D
C665        H667   1.086       .  S
C666        H668   1.085       .  S
C669        C670   1.365       .  D
C669        H671   1.086       .  S
C670        H672   1.085       .  S
C673        C674   1.368       .  D
C673        H675   1.086       .  S
C674        H676   1.086       .  S
C677        C678   1.366       .  D
C677        H679   1.086       .  S
C678        H680   1.086       .  S
C681        C682   1.372   1_455  D
C681        H683   1.085       .  S
C682        H684   1.078       .  S
C685        C686   1.376       .  D
C685        H687   1.085       .  S
C686        H688   1.085       .  S
C689        C690   1.363       .  D
C689        H691   1.085       .  S
C690        H692   1.085       .  S
C693        C694   1.363       .  D
C693        H695   1.086       .  S
C694        H696   1.086       .  S
C697        C698   1.369       .  D
C697        H699   1.086       .  S
C698        H700   1.086       .  S
C701        C702   1.364   1_545  D
C701        H703   1.086       .  S
C702        H704   1.078       .  S
C705        C706   1.384   1_455  D
C705        H707   1.078       .  S
C706        H708   1.078       .  S
