geometry optimzed in LAMMPS
_audit_creation_date              2020-12-01 
_audit_creation_method            'lammps2cif' 
_symmetry_space_group_name_H-M    'P1' 
_symmetry_Int_Tables_number       1 
_symmetry_cell_setting            triclinic 
loop_ 
_symmetry_equiv_pos_as_xyz 
  x,y,z 
_cell_length_a                    42.46271771 
_cell_length_b                    42.55927300605809 
_cell_length_c                    42.44022054591446 
_cell_angle_alpha                 90.19587703811395 
_cell_angle_beta                  89.984409688613 
_cell_angle_gamma                 89.92103810892644 
loop_ 
_atom_site_label 
_atom_site_type_symbol 
_atom_site_fract_x 
_atom_site_fract_y 
_atom_site_fract_z 
_atom_site_charge 
N1          N  0.78679206  0.28541748  0.45190194    -0.26000
N2          N  0.80596542  0.30433449  0.43653236    -0.33900
C3          C  0.80201023  0.29986565  0.40541129     0.02300
C4          C  0.77901860  0.27709324  0.40089817     0.08400
C5          C  0.76999455  0.26851233  0.43106169    -0.04700
H6          H  0.81509505  0.31229522  0.38751840     0.09000
H7          H  0.75189184  0.25189480  0.43755356     0.10200
Cu8        Cu  0.83550192  0.33616582  0.45897444     0.44200
Cu9        Cu  0.78365465  0.28458784  0.50041944     0.42000
Cu10       Cu  0.82993090  0.34201600  0.54449437     0.43900
N11         N  0.86242655  0.36674733  0.48602044    -0.33400
N12         N  0.86070104  0.36903562  0.51708540    -0.27600
C13         C  0.88150677  0.39091824  0.52688482    -0.03700
C14         C  0.89693049  0.40291901  0.50072992     0.08500
C15         C  0.88415066  0.38707270  0.47529831     0.02300
H16         H  0.88503012  0.39771385  0.55121961     0.09900
H17         H  0.89017439  0.39008867  0.45072333     0.09000
N18         N  0.79804669  0.31062367  0.56506285    -0.34800
N19         N  0.78198966  0.28947389  0.54879344    -0.27000
C20         C  0.76439959  0.27227122  0.56858329    -0.02300
C21         C  0.76934380  0.28304109  0.59893740     0.06300
C22         C  0.79078947  0.30745897  0.59580773     0.04400
H23         H  0.74889462  0.25347227  0.56124632     0.09500
H24         H  0.80098362  0.32138463  0.61456769     0.08400
N25         N  0.51256925  0.78858893  0.31743640    -0.26000
N26         N  0.52865456  0.80465714  0.33869826    -0.33900
C27         C  0.55950474  0.79865710  0.33487034     0.02300
C28         C  0.56296860  0.77793712  0.30987549     0.08400
C29         C  0.53269756  0.77207835  0.29938919    -0.04700
H30         H  0.57804570  0.80928166  0.34871460     0.09000
H31         H  0.52571713  0.75682214  0.28020083     0.10200
Cu32       Cu  0.50803634  0.83509218  0.37091428     0.44200
Cu33       Cu  0.46411541  0.78965189  0.31391156     0.42000
Cu34       Cu  0.42252235  0.83741286  0.37084640     0.43900
N35         N  0.48169511  0.86530048  0.39890805    -0.33400
N36         N  0.45055036  0.86601516  0.39894718    -0.27600
C37         C  0.44076367  0.88842344  0.41911625    -0.03700
C38         C  0.46697564  0.90251441  0.43232489     0.08500
C39         C  0.49254112  0.88726877  0.41903978     0.02300
H40         H  0.41634710  0.89412015  0.42370437     0.09900
H41         H  0.51719113  0.89182427  0.42357822     0.09000
N42         N  0.40026165  0.80886474  0.33791945    -0.34800
N43         N  0.41565959  0.79214178  0.31660466    -0.27000
C44         C  0.39488148  0.77685484  0.29830164    -0.02300
C45         C  0.36486716  0.78410807  0.30866449     0.06300
C46         C  0.36915434  0.80444417  0.33387341     0.04400
H47         H  0.40125097  0.76109843  0.27928387     0.09500
H48         H  0.35103430  0.81555567  0.34796817     0.08400
N49         N  0.27990466  0.42562991  0.81907177    -0.26000
N50         N  0.29680338  0.41030759  0.84018871    -0.33900
C51         C  0.29139042  0.37934801  0.83705277     0.02300
C52         C  0.27006286  0.37485839  0.81273056     0.08400
C53         C  0.26325357  0.40481475  0.80196113    -0.04700
H54         H  0.30214386  0.36149342  0.85160132     0.09000
H55         H  0.24792780  0.41106305  0.78261381     0.10200
Cu56       Cu  0.32719538  0.43188894  0.87181687     0.44200
Cu57       Cu  0.28083129  0.47403039  0.81401608     0.42000
Cu58       Cu  0.33337298  0.51626830  0.86637937     0.43900
N59         N  0.35677033  0.45870063  0.90000746    -0.33400
N60         N  0.35877357  0.48963199  0.89810889    -0.27600
C61         C  0.38018541  0.49998493  0.91901094    -0.03700
C62         C  0.39237524  0.47430434  0.93467509     0.08500
C63         C  0.37702424  0.44849841  0.92210226     0.02300
H64         H  0.38676667  0.52434742  0.92214095     0.09900
H65         H  0.38053263  0.42410442  0.92828980     0.09000
N66         N  0.30519661  0.53775484  0.83309220    -0.34800
N67         N  0.28584849  0.52244295  0.81414133    -0.27000
C68         C  0.26981787  0.54332944  0.79667823    -0.02300
C69         C  0.27950811  0.57331311  0.80503640     0.06300
C70         C  0.30210741  0.56875390  0.82813227     0.04400
H71         H  0.25155079  0.53707641  0.78006017     0.09500
H72         H  0.31522344  0.58654638  0.84075236     0.08400
N73         N  0.14041675  0.28790993  0.05101864    -0.26000
N74         N  0.12091236  0.30711279  0.06583316    -0.33900
C75         C  0.12375674  0.30282838  0.09705512     0.02300
C76         C  0.14639257  0.27989862  0.10232159     0.08400
C77         C  0.15640208  0.27106628  0.07243717    -0.04700
H78         H  0.11021123  0.31560096  0.11445211     0.09000
H79         H  0.17464347  0.25431886  0.06651355     0.10200
Cu80       Cu  0.09244348  0.33938319  0.04320546     0.44200
Cu81       Cu  0.14472747  0.28559076  0.00242589     0.42000
Cu82       Cu  0.09541012  0.33959006  0.95837017     0.39100
N83         N  0.06678661  0.37010982  0.01563302    -0.33400
N84         N  0.06770788  0.37019193  0.98450163    -0.27600
C85         C  0.04782461  0.39232799  0.97374194    -0.03700
C86         C  0.03380816  0.40680129  0.99940232     0.08500
C87         C  0.04637668  0.39218097  0.02555765     0.02300
H88         H  0.04355244  0.39716256  0.94909660     0.09900
H89         H  0.04071617  0.39682729  0.04999570     0.09000
N90         N  0.12545388  0.30710160  0.93770386    -0.34800
N91         N  0.14366757  0.28760694  0.95365500    -0.27000
C92         C  0.16069729  0.27034085  0.93320868    -0.02300
C93         C  0.15275581  0.27935463  0.90289613     0.06300
C94         C  0.13031484  0.30269521  0.90672569     0.04400
H95         H  0.17743908  0.25241102  0.93998919     0.09500
H96         H  0.11884984  0.31609358  0.88838973     0.08400
N97         N  0.28099692  0.92734749  0.17906983    -0.26000
N98         N  0.30053461  0.91128689  0.16086433    -0.33900
C99         C  0.29662055  0.88042480  0.16630003     0.02300
C100        C  0.27361858  0.87690773  0.18916355     0.08400
C101        C  0.26430061  0.90717213  0.19675048    -0.04700
H102        H  0.30975089  0.86194947  0.15463573     0.09000
H103        H  0.24627105  0.91404417  0.21342238     0.10200
Cu104      Cu  0.33164158  0.93214461  0.12958060     0.44200
Cu105      Cu  0.27750712  0.97588790  0.17862390     0.42000
Cu106      Cu  0.32856042  0.01737138  0.12479052     0.43900
N107        N  0.36047479  0.95865697  0.10052969    -0.33400
N108        N  0.35939914  0.98967244  0.09888448    -0.27600
C109        C  0.38107609  0.99954644  0.07805647    -0.03700
C110        C  0.39644142  0.97349881  0.06599109     0.08500
C111        C  0.38280877  0.94797261  0.08070506     0.02300
H112        H  0.38517832  0.02387367  0.07201833     0.09900
H113        H  0.38861244  0.92343907  0.07723099     0.09000
N114        N  0.29677656  0.03956874  0.15458114    -0.34800
N115        N  0.27847268  0.02435273  0.17450593    -0.27000
C116        C  0.26188257  0.04528541  0.19151137    -0.02300
C117        C  0.26992309  0.07533373  0.18181944     0.06300
C118        C  0.29214345  0.07063168  0.15822704     0.04400
H119        H  0.24597645  0.03890365  0.21030120     0.09500
H120        H  0.30424129  0.08832317  0.14461870     0.08400
N121        N  0.78349949  0.65694306  0.44904885    -0.26000
N122        N  0.80097003  0.63657832  0.43323378    -0.33900
C123        C  0.79620915  0.64071901  0.40223252     0.02300
C124        C  0.77472424  0.66490276  0.39835391     0.08400
C125        C  0.76723015  0.67466627  0.42856591    -0.04700
H126        H  0.80778076  0.62725601  0.38392098     0.09000
H127        H  0.75065938  0.69282332  0.43527714     0.10200
Cu128      Cu  0.83032083  0.60396913  0.45435474     0.44200
Cu129      Cu  0.78172144  0.65918207  0.49762712     0.42000
Cu130      Cu  0.82918283  0.60283654  0.53969225     0.43900
N131        N  0.85790316  0.57422834  0.48129864    -0.33400
N132        N  0.85747123  0.57392284  0.51244932    -0.27600
C133        C  0.87846456  0.55268928  0.52280740    -0.03700
C134        C  0.89273627  0.53897500  0.49693261     0.08500
C135        C  0.87917279  0.55312390  0.47098241     0.02300
H136        H  0.88320880  0.54787391  0.54736949     0.09900
H137        H  0.88464086  0.54875570  0.44644951     0.09000
N138        N  0.79975922  0.63494836  0.56160842    -0.34800
N139        N  0.78268844  0.65578302  0.54614315    -0.27000
C140        C  0.76637932  0.67326582  0.56689928    -0.02300
C141        C  0.77344001  0.66290666  0.59695498     0.06300
C142        C  0.79470159  0.63854911  0.59267799     0.04400
H143        H  0.75013673  0.69176813  0.56045448     0.09500
H144        H  0.80602839  0.62469840  0.61076382     0.08400
N145        N  0.14215897  0.66020948  0.04739303    -0.26000
N146        N  0.12227708  0.64287310  0.06381515    -0.33900
C147        C  0.12693484  0.64846761  0.09469348     0.02300
C148        C  0.15103707  0.67021863  0.09783004     0.08400
C149        C  0.16009343  0.67708859  0.06730777    -0.04700
H150        H  0.11422177  0.63695233  0.11348945     0.09000
H151        H  0.17826162  0.69332144  0.06001379     0.10200
Cu152      Cu  0.09061768  0.61157658  0.04326839     0.44200
Cu153      Cu  0.14430702  0.66020222  0.99868271     0.42000
Cu154      Cu  0.08846619  0.61217643  0.95734491     0.43900
N155        N  0.06258839  0.58192833  0.01604022    -0.33400
N156        N  0.06186128  0.58251905  0.98488391    -0.27600
C157        C  0.04198976  0.56031968  0.97437203    -0.03700
C158        C  0.02956030  0.54498089  0.00009054     0.08500
C159        C  0.04303570  0.55923022  0.02616728     0.02300
H160        H  0.03707788  0.55566098  0.94977820     0.09900
H161        H  0.03902410  0.55348173  0.05065440     0.09000
N162        N  0.12088070  0.64025116  0.93480916    -0.34800
N163        N  0.14181445  0.65742058  0.95006021    -0.27000
C164        C  0.16007518  0.67227712  0.92904140    -0.02300
C165        C  0.15006847  0.66422509  0.89898088     0.06300
C166        C  0.12513669  0.64377876  0.90363899     0.04400
H167        H  0.17942635  0.68754197  0.93534666     0.09500
H168        H  0.11075469  0.63260411  0.88582860     0.08400
O169        O  0.99623500  0.50831635  0.02554588    -0.71700
O170        O  0.93190052  0.43973798  0.02422748    -0.72600
O171        O  0.99837520  0.44163567  0.02510175    -0.61300
O172        O  0.92963437  0.50648219  0.02417921    -0.69700
O173        O  0.93037141  0.50624026  0.97185065    -0.69200
O174        O  0.99916325  0.44156449  0.97277058    -0.60500
O175        O  0.93250362  0.43940758  0.97189033    -0.73000
O176        O  0.99697442  0.50837724  0.97321091    -0.71800
Cu177      Cu  0.96399778  0.47404561  0.02657922     1.04600
Cu178      Cu  0.96478691  0.47390114  0.97057764     1.04300
C179        C  0.00658502  0.51930175  0.99959962     0.94500
C180        C  0.92226380  0.42858011  0.99799741     0.93700
C181        C  0.00941211  0.43123899  0.99906227     0.85800
C182        C  0.91934642  0.51671999  0.99784148     0.92100
N183        N  0.64253216  0.92406533  0.18672498    -0.26000
N184        N  0.62487250  0.90858796  0.16627998    -0.33900
C185        C  0.62977943  0.87758813  0.16992579     0.02300
C186        C  0.65157477  0.87330882  0.19384931     0.08400
C187        C  0.65903267  0.90335072  0.20399822    -0.04700
H188        H  0.61823358  0.85953495  0.15616766     0.09000
H189        H  0.67589172  0.90979577  0.22198526     0.10200
Cu190      Cu  0.59544499  0.93026921  0.13380898     0.44200
Cu191      Cu  0.64451130  0.97261317  0.18931963     0.42000
Cu192      Cu  0.59530018  0.01511235  0.13388543     0.43900
N193        N  0.56798517  0.95714333  0.10360861    -0.33400
N194        N  0.56796299  0.98821374  0.10362411    -0.27600
C195        C  0.54744754  0.99848780  0.08178891    -0.03700
C196        C  0.53387884  0.97262577  0.06739743     0.08500
C197        C  0.54746219  0.94681191  0.08176413     0.02300
H198        H  0.54255250  0.02296271  0.07699772     0.09900
H199        H  0.54257775  0.92232044  0.07693375     0.09000
N200        N  0.62486933  0.03657386  0.16632065    -0.34800
N201        N  0.64286838  0.02113523  0.18641727    -0.27000
C202        C  0.65948365  0.04189483  0.20359990    -0.02300
C203        C  0.65159904  0.07193887  0.19388095     0.06300
C204        C  0.62949096  0.06756442  0.17023773     0.04400
H205        H  0.67654459  0.03544858  0.22136042     0.09500
H206        H  0.61736139  0.08550696  0.15693337     0.08400
O207        O  0.43210635  0.94683132  0.03198805    -0.71700
O208        O  0.49915862  0.94587883  0.96517561    -0.72600
O209        O  0.49908201  0.94646647  0.03212319    -0.61300
O210        O  0.43209736  0.94624501  0.96509637    -0.69700
O211        O  0.43247270  0.99841100  0.96474648    -0.69200
O212        O  0.49909506  0.99863836  0.03210452    -0.60500
O213        O  0.49960250  0.99805698  0.96529689    -0.73000
O214        O  0.43213090  0.99901085  0.03148765    -0.71800
Cu215      Cu  0.46561501  0.94452637  0.99859196     1.04600
Cu216      Cu  0.46584477  0.00034636  0.99837585     1.04300
C217        C  0.42144125  0.97308028  0.04209584     0.94500
C218        C  0.51010649  0.97185318  0.95491766     0.93700
C219        C  0.50958561  0.97257660  0.04269585     0.85800
C220        C  0.42160815  0.97231342  0.95451411     0.92100
N221        N  0.78850574  0.28835714  0.04901929    -0.26000
N222        N  0.80917051  0.30599226  0.06416325    -0.33900
C223        C  0.80571510  0.30170632  0.09535085     0.02300
C224        C  0.78165526  0.28028000  0.10016032     0.08400
C225        C  0.77132144  0.27238510  0.07016962    -0.04700
H226        H  0.81991695  0.31321648  0.11309367     0.09000
H227        H  0.75228552  0.25664317  0.06406508     0.10200
Cu228      Cu  0.84039319  0.33576394  0.04175713     0.44200
Cu229      Cu  0.78448516  0.28680009  0.00030872     0.42000
Cu230      Cu  0.83819087  0.33604832  0.95640123     0.43900
N231        N  0.86709184  0.36552015  0.01409241    -0.33400
N232        N  0.86633771  0.36568802  0.98294686    -0.27600
C233        C  0.88583399  0.38817162  0.97232024    -0.03700
C234        C  0.89938127  0.40282313  0.99806157     0.08500
C235        C  0.88703648  0.38788648  0.02413706     0.02300
H236        H  0.88969083  0.39352941  0.94771912     0.09900
H237        H  0.89205990  0.39295392  0.04862836     0.09000
N238        N  0.80617242  0.30585793  0.93548623    -0.34800
N239        N  0.78611158  0.28832796  0.95146641    -0.27000
C240        C  0.76789755  0.27239538  0.93102221    -0.02300
C241        C  0.77703475  0.28016453  0.90070047     0.06300
C242        C  0.80141314  0.30140340  0.90447940     0.04400
H243        H  0.74953100  0.25616349  0.93779342     0.09500
H244        H  0.81426564  0.31337715  0.88607791     0.08400
C245        C  0.69672673  0.70433339  0.26621295     0.46700
H246        H  0.68218665  0.68934694  0.28191717    -0.02300
C247        C  0.73092875  0.73943806  0.22941627     0.46800
H248        H  0.74549866  0.75446130  0.21379016    -0.02300
C249        C  0.68145754  0.73595313  0.25828061    -0.16000
C250        C  0.72896671  0.71268103  0.27997998    -0.15700
C251        C  0.70393560  0.68917938  0.23427937    -0.16100
C252        C  0.69929920  0.75438831  0.23872079    -0.16100
C253        C  0.74689011  0.73142452  0.26086323    -0.15600
C254        C  0.72219653  0.70744036  0.21489750    -0.16000
N255        N  0.64343288  0.42287931  0.18306692    -0.26000
N256        N  0.62343189  0.40768033  0.16473185    -0.33900
C257        C  0.62729100  0.37659253  0.16890647     0.02300
C258        C  0.65098318  0.37193348  0.19094658     0.08400
C259        C  0.66062610  0.40194833  0.19928867    -0.04700
H260        H  0.61356543  0.35883149  0.15691561     0.09000
H261        H  0.67925448  0.40829378  0.21545412     0.10200
Cu262      Cu  0.59254533  0.43014030  0.13435220     0.44200
Cu263      Cu  0.64672799  0.47132833  0.18524090     0.42000
Cu264      Cu  0.59464767  0.51542988  0.13435688     0.43900
N265        N  0.56509386  0.45799550  0.10520194    -0.33400
N266        N  0.56587676  0.48906086  0.10511940    -0.27600
C267        C  0.54528113  0.49980785  0.08360500    -0.03700
C268        C  0.53090545  0.47424804  0.06952830     0.08500
C269        C  0.54399543  0.44814408  0.08374565     0.02300
H270        H  0.54100977  0.52438180  0.07872308     0.09900
H271        H  0.53850421  0.42377022  0.07897819     0.09000
N272        N  0.62587552  0.53597508  0.16568018    -0.34800
N273        N  0.64528739  0.51987949  0.18387219    -0.27000
C274        C  0.66286034  0.54005271  0.20079137    -0.02300
C275        C  0.65386975  0.57029258  0.19303593     0.06300
C276        C  0.63036536  0.56682555  0.17073308     0.04400
H277        H  0.68057828  0.53316560  0.21774219     0.09500
H278        H  0.61780933  0.58534989  0.15863831     0.08400
C279        C  0.73212646  0.20402742  0.23154354     0.46700
H280        H  0.74671306  0.18809454  0.21679482    -0.02300
C281        C  0.69843854  0.24072856  0.26753911     0.46800
H282        H  0.68393431  0.25599800  0.28307785    -0.02300
C283        C  0.72573241  0.23654552  0.21695258    -0.16000
C284        C  0.69951941  0.19066231  0.23979471    -0.15700
C285        C  0.74758909  0.21131228  0.26329751    -0.16100
C286        C  0.70653427  0.25536396  0.23542293    -0.16100
C287        C  0.68199033  0.20978559  0.25908333    -0.15600
C288        C  0.73025042  0.23108449  0.28202028    -0.16000
N289        N  0.51333752  0.15325404  0.31486537    -0.26000
N290        N  0.52947904  0.13715786  0.33601657    -0.33900
C291        C  0.56029961  0.14351250  0.33243400     0.02300
C292        C  0.56364147  0.16444375  0.30772816     0.08400
C293        C  0.53337715  0.17001516  0.29712921    -0.04700
H294        H  0.57890516  0.13332007  0.34651451     0.09000
H295        H  0.52630253  0.18564834  0.27836361     0.10200
Cu296      Cu  0.50885714  0.10695025  0.36841867     0.44200
Cu297      Cu  0.46480587  0.15343907  0.31182488     0.42000
Cu298      Cu  0.42337203  0.10572053  0.36821293     0.43900
N299        N  0.48220641  0.07739296  0.39680135    -0.33400
N300        N  0.45105145  0.07688133  0.39663980    -0.27600
C301        C  0.44106030  0.05509991  0.41728297    -0.03700
C302        C  0.46713224  0.04122719  0.43108082     0.08500
C303        C  0.49282127  0.05595274  0.41754382     0.02300
H304        H  0.41659315  0.04977050  0.42191657     0.09900
H305        H  0.51742563  0.05143508  0.42239547     0.09000
N306        N  0.40106103  0.13619384  0.33695533    -0.34800
N307        N  0.41635843  0.15330395  0.31605602    -0.27000
C308        C  0.39555973  0.17017144  0.29922595    -0.02300
C309        C  0.36549639  0.16347252  0.30997341     0.06300
C310        C  0.37001785  0.14180646  0.33399484     0.04400
H311        H  0.40197351  0.18568782  0.28015231     0.09500
H312        H  0.35216280  0.13104286  0.34854820     0.08400
N313        N  0.01089718  0.15720720  0.68228605    -0.26000
N314        N  0.02674448  0.13662252  0.66510874    -0.33900
C315        C  0.05770936  0.14070530  0.67020166     0.02300
C316        C  0.06164290  0.16499283  0.69174928     0.08400
C317        C  0.03132206  0.17481109  0.69887396    -0.04700
H318        H  0.07594902  0.12739015  0.65838637     0.09000
H319        H  0.02443098  0.19326326  0.71504919     0.10200
Cu320      Cu  0.00572751  0.10421133  0.63504999     0.44200
Cu321      Cu  0.96233484  0.16119440  0.68179559     0.42000
Cu322      Cu  0.92039082  0.10581625  0.63256279     0.43900
N323        N  0.97901658  0.07487673  0.60638195    -0.33400
N324        N  0.94787648  0.07540429  0.60559572    -0.27600
C325        C  0.93779216  0.05418156  0.58430655    -0.03700
C326        C  0.96380305  0.03967748  0.57099152     0.08500
C327        C  0.98954994  0.05332958  0.58557202     0.02300
H328        H  0.91332157  0.04993441  0.57864079     0.09900
H329        H  0.01413258  0.04823019  0.58116967     0.09000
N330        N  0.89831144  0.13955495  0.66051486    -0.34800
N331        N  0.91377593  0.16024337  0.67788806    -0.27000
C332        C  0.89298732  0.17859644  0.69324575    -0.02300
C333        C  0.86291662  0.16882191  0.68545876     0.06300
C334        C  0.86719839  0.14401481  0.66463490     0.04400
H335        H  0.89934210  0.19688297  0.70981707     0.09500
H336        H  0.84905491  0.13007214  0.65345603     0.08400
O337        O  0.98998880  0.00507619  0.53521547    -0.71700
O338        O  0.98915861  0.93846002  0.46739478    -0.72600
O339        O  0.98914016  0.00508443  0.46803536    -0.61300
O340        O  0.99041708  0.93834739  0.53453058    -0.69700
O341        O  0.93811800  0.93833021  0.53510914    -0.69200
O342        O  0.93684292  0.00517835  0.46854414    -0.60500
O343        O  0.93687923  0.93854819  0.46802237    -0.73000
O344        O  0.93770877  0.00497992  0.53562508    -0.71800
Cu345      Cu  0.99150946  0.97174810  0.50127585     1.04600
Cu346      Cu  0.93556952  0.97174732  0.50188113     1.04300
C347        C  0.96388026  0.01543983  0.54613218     0.94500
C348        C  0.96286793  0.92820842  0.45688722     0.93700
C349        C  0.96290297  0.01545823  0.45763661     0.85800
C350        C  0.96441779  0.92792366  0.54537333     0.92100
N351        N  0.15042153  0.29702318  0.54938602    -0.26000
N352        N  0.13051253  0.31545178  0.56471655    -0.33900
C353        C  0.13219727  0.30899294  0.59568051     0.02300
C354        C  0.15410824  0.28522618  0.60001958     0.08400
C355        C  0.16508492  0.27818094  0.57011495    -0.04700
H356        H  0.11853111  0.32081459  0.61368557     0.09000
H357        H  0.18319861  0.26135128  0.56394548     0.10200
Cu358      Cu  0.10196083  0.34848689  0.54279557     0.44200
Cu359      Cu  0.15775563  0.29904837  0.50117804     0.42000
Cu360      Cu  0.10861576  0.35365928  0.45797811     0.43900
N361        N  0.07361458  0.37711813  0.51518686    -0.33400
N362        N  0.07566818  0.37863773  0.48413491    -0.27600
C363        C  0.05325404  0.39822054  0.47331888    -0.03700
C364        C  0.03641040  0.40963380  0.49882406     0.08500
C365        C  0.04999549  0.39585307  0.52497413     0.02300
H366        H  0.04956071  0.40376529  0.44873158     0.09900
H367        H  0.04305304  0.39896740  0.54931868     0.09000
N368        N  0.14149103  0.32415048  0.43700153    -0.34800
N369        N  0.15926953  0.30406823  0.45267664    -0.27000
C370        C  0.17559292  0.28639878  0.43200827    -0.02300
C371        C  0.16760509  0.29563613  0.40174854     0.06300
C372        C  0.14611341  0.31987712  0.40596910     0.04400
H373        H  0.19061219  0.26695933  0.43860063     0.09500
H374        H  0.13385782  0.33291014  0.38790628     0.08400
N375        N  0.28329116  0.92418279  0.81512730    -0.26000
N376        N  0.30287582  0.90873685  0.83369025    -0.33900
C377        C  0.29946740  0.87773414  0.82860604     0.02300
C378        C  0.27647608  0.87325523  0.80580765     0.08400
C379        C  0.26683678  0.90335988  0.79781234    -0.04700
H380        H  0.31303387  0.85987282  0.84056216     0.09000
H381        H  0.24867099  0.90977251  0.78117193     0.10200
Cu382      Cu  0.33304276  0.93013989  0.86571240     0.44200
Cu383      Cu  0.27955433  0.97288148  0.81438271     0.42000
Cu384      Cu  0.33102867  0.01483295  0.86822486     0.43900
N385        N  0.36123432  0.95683867  0.89545854    -0.33400
N386        N  0.36058107  0.98789368  0.89626040    -0.27600
C387        C  0.38190289  0.99815275  0.91735795    -0.03700
C388        C  0.39666906  0.97230653  0.93044843     0.08500
C389        C  0.38294035  0.94649740  0.91609069     0.02300
H390        H  0.38637198  0.02262178  0.92268707     0.09900
H391        H  0.38845147  0.92201887  0.92016087     0.09000
N392        N  0.30000858  0.03677736  0.83752112    -0.34800
N393        N  0.28106311  0.02158590  0.81802930    -0.27000
C394        C  0.26415491  0.04266427  0.80154930    -0.02300
C395        C  0.27295526  0.07261471  0.81101785     0.06300
C396        C  0.29575199  0.06786590  0.83387540     0.04400
H397        H  0.24713492  0.03657977  0.78358391     0.09500
H398        H  0.30814130  0.08565867  0.84723167     0.08400
C399        C  0.19511795  0.20616880  0.76805891     0.46700
H400        H  0.17958579  0.19166606  0.78314223    -0.02300
C401        C  0.23064506  0.24199002  0.73329835     0.46800
H402        H  0.24545064  0.25742772  0.71835695    -0.02300
C403        C  0.22712653  0.19103743  0.75993231    -0.16000
C404        C  0.18022903  0.21517045  0.73624400    -0.15700
C405        C  0.20364723  0.23744519  0.78374185    -0.16100
C406        C  0.24521357  0.20943003  0.74005556    -0.16100
C407        C  0.19863271  0.23450065  0.71826339    -0.15600
C408        C  0.22277100  0.25609732  0.76587617    -0.16000
N409        N  0.51103466  0.15187106  0.68637335    -0.26000
N410        N  0.52718736  0.13559438  0.66525538    -0.33900
C411        C  0.55806901  0.14118861  0.66935188     0.02300
C412        C  0.56158739  0.16189162  0.69435218     0.08400
C413        C  0.53124042  0.16810591  0.70460096    -0.04700
H414        H  0.57659080  0.13057579  0.65540812     0.09000
H415        H  0.52426550  0.18372967  0.72350818     0.10200
Cu416      Cu  0.50676414  0.10591356  0.63223035     0.44200
Cu417      Cu  0.46224415  0.15199293  0.68891412     0.42000
Cu418      Cu  0.42156884  0.10124242  0.63397782     0.43900
N419        N  0.48077766  0.07634433  0.60329637    -0.33400
N420        N  0.44969711  0.07453802  0.60413624    -0.27600
C421        C  0.44007544  0.05312789  0.58286590    -0.03700
C422        C  0.46634270  0.04085191  0.56797628     0.08500
C423        C  0.49176319  0.05606411  0.58149021     0.02300
H424        H  0.41574329  0.04688946  0.57865300     0.09900
H425        H  0.51640951  0.05260725  0.57598487     0.09000
N426        N  0.39869034  0.13166207  0.66473343    -0.34800
N427        N  0.41358486  0.15005101  0.68493493    -0.27000
C428        C  0.39230997  0.16739852  0.70076969    -0.02300
C429        C  0.36242496  0.15978353  0.68994436     0.06300
C430        C  0.36753123  0.13690680  0.66710470     0.04400
H431        H  0.39832889  0.18422169  0.71893182     0.09500
H432        H  0.35006070  0.12545531  0.65254318     0.08400
C433        C  0.69347795  0.24087534  0.73376373     0.46700
H434        H  0.67729099  0.25549450  0.71934804    -0.02300
C435        C  0.73141652  0.20660910  0.76762914     0.46800
H436        H  0.74759243  0.19200981  0.78207591    -0.02300
C437        C  0.72475990  0.23325821  0.71727351    -0.16000
C438        C  0.70288092  0.25622820  0.76514004    -0.15700
C439        C  0.67971855  0.20880497  0.74286520    -0.16100
C440        C  0.74460039  0.21485151  0.73493934    -0.16100
C441        C  0.72323367  0.23840329  0.78275909    -0.15600
C442        C  0.69946471  0.19097224  0.76119255    -0.16000
N443        N  0.64651005  0.42516053  0.82138305    -0.26000
N444        N  0.62730341  0.40929215  0.83992342    -0.33900
C445        C  0.63111613  0.37838071  0.83432689     0.02300
C446        C  0.65385286  0.37460237  0.81111535     0.08400
C447        C  0.66302869  0.40486324  0.80352269    -0.04700
H448        H  0.61856402  0.36003942  0.84663995     0.09000
H449        H  0.68015781  0.41177631  0.78601036     0.10200
Cu450      Cu  0.59650872  0.43077718  0.87145647     0.44200
Cu451      Cu  0.64926942  0.47366205  0.82087675     0.42000
Cu452      Cu  0.59412537  0.51668525  0.86919964     0.43900
N453        N  0.56638010  0.45817952  0.89876024    -0.33400
N454        N  0.56535943  0.48924813  0.89776134    -0.27600
C455        C  0.54336812  0.49954607  0.91818752    -0.03700
C456        C  0.52990667  0.47377972  0.93268733     0.08500
C457        C  0.54503985  0.44794765  0.91982071     0.02300
H458        H  0.53774425  0.52402115  0.92231044     0.09900
H459        H  0.54098906  0.42351386  0.92545809     0.09000
N460        N  0.62668765  0.53817351  0.83958727    -0.34800
N461        N  0.64723508  0.52218461  0.82247702    -0.27000
C462        C  0.66523405  0.54235840  0.80617391    -0.02300
C463        C  0.65553014  0.57264197  0.81313167     0.06300
C464        C  0.63096517  0.56907921  0.83440491     0.04400
H465        H  0.68352226  0.53537907  0.78984017     0.09500
H466        H  0.61737502  0.58755287  0.84552231     0.08400
C467        C  0.73120386  0.73977380  0.76517073     0.46700
H468        H  0.74628884  0.75548222  0.77969709    -0.02300
C469        C  0.69596302  0.70283374  0.73104400     0.46800
H470        H  0.68092532  0.68715121  0.71644942    -0.02300
C471        C  0.69897313  0.75389114  0.75717617    -0.16000
C472        C  0.74570165  0.73108755  0.73329889    -0.15700
C473        C  0.72390290  0.70822451  0.78081666    -0.16100
C474        C  0.68062506  0.73462044  0.73880556    -0.16100
C475        C  0.72744555  0.71130212  0.71548764    -0.15600
C476        C  0.70487545  0.68892913  0.76316995    -0.16000
N477        N  0.51185631  0.78782536  0.68038482    -0.26000
N478        N  0.52808074  0.80544763  0.66061990    -0.33900
C479        C  0.55895027  0.79982514  0.66483120     0.02300
C480        C  0.56227090  0.77768728  0.68847416     0.08400
C481        C  0.53188692  0.77066259  0.69779603    -0.04700
H482        H  0.57758823  0.81152561  0.65207002     0.09000
H483        H  0.52474693  0.75406330  0.71566707     0.10200
Cu484      Cu  0.50748640  0.83694992  0.62951756     0.44200
Cu485      Cu  0.46334330  0.78757757  0.68277921     0.42000
Cu486      Cu  0.42170943  0.83960744  0.63024938     0.43900
N487        N  0.48103227  0.86729694  0.60183049    -0.33400
N488        N  0.44987947  0.86829017  0.60208646    -0.27600
C489        C  0.44016135  0.89031267  0.58154853    -0.03700
C490        C  0.46639734  0.90382014  0.56775114     0.08500
C491        C  0.49190334  0.88866259  0.58117596     0.02300
H492        H  0.41576065  0.89599239  0.57691560     0.09900
H493        H  0.51655429  0.89272719  0.57620292     0.09000
N494        N  0.39932313  0.80861325  0.66100288    -0.34800
N495        N  0.41487992  0.78991535  0.68033329    -0.27000
C496        C  0.39428521  0.77296103  0.69721912    -0.02300
C497        C  0.36409569  0.78121905  0.68817440     0.06300
C498        C  0.36822091  0.80390549  0.66507942     0.04400
H499        H  0.40094737  0.75549126  0.71443346     0.09500
H500        H  0.34999707  0.81642430  0.65247421     0.08400
C501        C  0.19680751  0.74081916  0.76765643     0.46700
H502        H  0.18261507  0.75637327  0.78320211    -0.02300
C503        C  0.22956781  0.70490633  0.73000461     0.46800
H504        H  0.24376799  0.69017948  0.71370271    -0.02300
C505        C  0.18008356  0.73316301  0.73668933    -0.16000
C506        C  0.22879168  0.75481819  0.75807632    -0.15700
C507        C  0.20429498  0.70839768  0.78168926    -0.16100
C508        C  0.19693710  0.71391514  0.71700849    -0.16100
C509        C  0.24569597  0.73617413  0.73787744    -0.15600
C510        C  0.22304075  0.68993919  0.76241220    -0.16000
N511        N  0.01141393  0.79188375  0.31636569    -0.26000
N512        N  0.02696319  0.81130681  0.33504284    -0.33900
C513        C  0.05801699  0.80714848  0.33050178     0.02300
C514        C  0.06210235  0.78389629  0.30795187     0.08400
C515        C  0.03204004  0.77472316  0.29956871    -0.04700
H516        H  0.07622622  0.81988296  0.34295583     0.09000
H517        H  0.02554639  0.75726855  0.28216222     0.10200
Cu518      Cu  0.00504493  0.84225654  0.36586985     0.44200
Cu519      Cu  0.96304226  0.78973674  0.31426204     0.42000
Cu520      Cu  0.91936524  0.84240801  0.36542474     0.43900
N521        N  0.97779433  0.87043072  0.39508943    -0.33400
N522        N  0.94663330  0.87066936  0.39501100    -0.27600
C523        C  0.93649354  0.89123362  0.41699843    -0.03700
C524        C  0.96251923  0.90445586  0.43156694     0.08500
C525        C  0.98826696  0.89075651  0.41704527     0.02300
H526        H  0.91199531  0.89611646  0.42206557     0.09900
H527        H  0.01284448  0.89514764  0.42210403     0.09000
N528        N  0.89840827  0.81033983  0.33460685    -0.34800
N529        N  0.91462175  0.79099436  0.31633316    -0.27000
C530        C  0.89463826  0.77308173  0.29959541    -0.02300
C531        C  0.86422222  0.78157103  0.30749919     0.06300
C532        C  0.86749483  0.80529496  0.32977852     0.04400
H533        H  0.90182528  0.75563336  0.28244383     0.09500
H534        H  0.84881377  0.81778685  0.34181974     0.08400
C535        C  0.23108383  0.70923659  0.26640415     0.46700
H536        H  0.24601920  0.69403677  0.28154268    -0.02300
C537        C  0.19597537  0.74489479  0.23098256     0.46800
H538        H  0.18096240  0.76013141  0.21595251    -0.02300
C539        C  0.19927929  0.71767549  0.28133257    -0.16000
C540        C  0.24624756  0.74092960  0.25831120    -0.15700
C541        C  0.22279340  0.69440513  0.23438691    -0.16100
C542        C  0.18098204  0.73667254  0.26278136    -0.16100
C543        C  0.22793329  0.75951378  0.23929579    -0.15600
C544        C  0.20391842  0.71305400  0.21589850    -0.16000
N545        N  0.27829586  0.42638787  0.18241814    -0.26000
N546        N  0.29947074  0.41125578  0.16532454    -0.33900
C547        C  0.29634151  0.38020971  0.17010003     0.02300
C548        C  0.27189209  0.37535588  0.19122892     0.08400
C549        C  0.26103191  0.40531961  0.19846780    -0.04700
H550        H  0.31125010  0.36260021  0.15930544     0.09000
H551        H  0.24177534  0.41148848  0.21397995     0.10200
Cu552      Cu  0.33163590  0.43342406  0.13615645     0.44200
Cu553      Cu  0.27481518  0.47507186  0.18378311     0.42000
Cu554      Cu  0.33331301  0.51816534  0.13818078     0.43900
N555        N  0.36072790  0.46032099  0.10780624    -0.33400
N556        N  0.36142959  0.49137180  0.10849854    -0.27600
C557        C  0.38222870  0.50158451  0.08691439    -0.03700
C558        C  0.39518379  0.47566413  0.07198469     0.08500
C559        C  0.38106037  0.44992325  0.08582065     0.02300
H560        H  0.38738903  0.52603586  0.08234485     0.09900
H561        H  0.38509585  0.42542854  0.08020995     0.09000
N562        N  0.30057595  0.53921540  0.16775175    -0.34800
N563        N  0.27875935  0.52371849  0.18359102    -0.27000
C564        C  0.26069603  0.54445581  0.19938058    -0.02300
C565        C  0.27181423  0.57441135  0.19336400     0.06300
C566        C  0.29713259  0.57014872  0.17325732     0.04400
H567        H  0.24114793  0.53811510  0.21441563     0.09500
H568        H  0.31157572  0.58824278  0.16275946     0.08400
N569        N  0.13677425  0.66362883  0.54712822    -0.26000
N570        N  0.11789805  0.64417701  0.56224750    -0.33900
C571        C  0.12271122  0.64737343  0.59343500     0.02300
C572        C  0.14583451  0.66993116  0.59824419     0.08400
C573        C  0.15413750  0.67963829  0.56821807    -0.04700
H574        H  0.11004291  0.63435166  0.61121316     0.09000
H575        H  0.17201384  0.69659612  0.56196946     0.10200
Cu576      Cu  0.08736566  0.61345870  0.53944513     0.44200
Cu577      Cu  0.13878169  0.66690334  0.49848408     0.42000
Cu578      Cu  0.09077910  0.61173270  0.45393096     0.43900
N579        N  0.06078000  0.58316635  0.51163122    -0.33400
N580        N  0.06191985  0.58234109  0.48048283    -0.27600
C581        C  0.04229447  0.55971724  0.47000832    -0.03700
C582        C  0.02826462  0.54563316  0.49583058     0.08500
C583        C  0.04051844  0.56113345  0.52176086     0.02300
H584        H  0.03869774  0.55382061  0.44545296     0.09900
H585        H  0.03524444  0.55660616  0.54627086     0.09000
N586        N  0.12185853  0.64360470  0.43346979    -0.34800
N587        N  0.13880765  0.66402973  0.44974574    -0.27000
C588        C  0.15627852  0.68116900  0.42973366    -0.02300
C589        C  0.15027870  0.67096627  0.39931360     0.06300
C590        C  0.12831618  0.64710920  0.40263090     0.04400
H591        H  0.17269743  0.69922822  0.43693676     0.09500
H592        H  0.11753717  0.63347171  0.38398548     0.08400
N593        N  0.01051674  0.78915148  0.68354556    -0.26000
N594        N  0.02689069  0.80863572  0.66577666    -0.33900
C595        C  0.05765557  0.80468676  0.67196689     0.02300
C596        C  0.06075185  0.78164169  0.69476932     0.08400
C597        C  0.03032182  0.77228579  0.70147280    -0.04700
H598        H  0.07637248  0.81740026  0.66034898     0.09000
H599        H  0.02294009  0.75490996  0.71848250     0.10200
Cu600      Cu  0.00672345  0.83991722  0.63419777     0.44200
Cu601      Cu  0.96216496  0.78665953  0.68335525     0.42000
Cu602      Cu  0.92116895  0.84131055  0.63375888     0.43900
N603        N  0.98006821  0.86896610  0.60536405    -0.33400
N604        N  0.94892234  0.86938049  0.60544924    -0.27600
C605        C  0.93872120  0.89035828  0.58418391    -0.03700
C606        C  0.96464313  0.90380341  0.56999634     0.08500
C607        C  0.99051570  0.88977552  0.58396386     0.02300
H608        H  0.91420397  0.89535199  0.57936739     0.09900
H609        H  0.01507498  0.89427827  0.57892524     0.09000
N610        N  0.89862412  0.80975287  0.66297414    -0.34800
N611        N  0.91389637  0.78945313  0.68081250    -0.27000
C612        C  0.89305225  0.77185387  0.69659474    -0.02300
C613        C  0.86310462  0.78152971  0.68833558     0.06300
C614        C  0.86749857  0.80568595  0.66699890     0.04400
H615        H  0.89935110  0.75366601  0.71320164     0.09500
H616        H  0.84949215  0.81897236  0.65486227     0.08400
N617        N  0.65013056  0.02093993  0.81931615    -0.26000
N618        N  0.63400072  0.03626963  0.84113056    -0.33900
C619        C  0.63935440  0.06727573  0.83801956     0.02300
C620        C  0.65974019  0.07172244  0.81288517     0.08400
C621        C  0.66607036  0.04174150  0.80169241    -0.04700
H622        H  0.62832244  0.08526900  0.85231989     0.09000
H623        H  0.68117164  0.03539846  0.78215859     0.10200
Cu624      Cu  0.60387011  0.01421293  0.87258319     0.44200
Cu625      Cu  0.64941045  0.97245057  0.81399104     0.42000
Cu626      Cu  0.59856775  0.92903772  0.86647342     0.43900
N627        N  0.57279388  0.98700578  0.89855540    -0.33400
N628        N  0.57074298  0.95606535  0.89628426    -0.27600
C629        C  0.54807955  0.94587836  0.91591047    -0.03700
C630        C  0.53524246  0.97166176  0.93114026     0.08500
C631        C  0.55143974  0.99731833  0.91959961     0.02300
H632        H  0.54143251  0.92152873  0.91880941     0.09900
H633        H  0.54800983  0.02170713  0.92603269     0.09000
N634        N  0.62884097  0.90790787  0.83437100    -0.34800
N635        N  0.64684647  0.92376612  0.81461577    -0.27000
C636        C  0.66329338  0.90332439  0.79678051    -0.02300
C637        C  0.65549220  0.87315243  0.80598924     0.06300
C638        C  0.63360933  0.87697291  0.82988466     0.04400
H639        H  0.68019626  0.90997001  0.77893678     0.09500
H640        H  0.62177301  0.85861231  0.84287495     0.08400
N641        N  0.01329745  0.15128456  0.31855074    -0.26000
N642        N  0.02872450  0.13111845  0.33640828    -0.33900
C643        C  0.05986790  0.13560758  0.33257976     0.02300
C644        C  0.06440660  0.15994436  0.31129660     0.08400
C645        C  0.03415986  0.16923829  0.30301159    -0.04700
H646        H  0.07777993  0.12188782  0.34431769     0.09000
H647        H  0.02759629  0.18810634  0.28732966     0.10200
Cu648      Cu  0.00621776  0.09943685  0.36600921     0.44200
Cu649      Cu  0.96450367  0.15333669  0.31623679     0.42000
Cu650      Cu  0.92028287  0.10090271  0.36691792     0.43900
N651        N  0.97853656  0.07234394  0.39580250    -0.33400
N652        N  0.94738523  0.07302289  0.39631913    -0.27600
C653        C  0.93698216  0.05305695  0.41851657    -0.03700
C654        C  0.96282746  0.03921264  0.43262358     0.08500
C655        C  0.98875100  0.05193149  0.41766292     0.02300
H656        H  0.91243167  0.04888012  0.42388048     0.09900
H657        H  0.01326104  0.04671401  0.42227051     0.09000
N658        N  0.89953396  0.13129254  0.33497681    -0.34800
N659        N  0.91570985  0.15061071  0.31680953    -0.27000
C660        C  0.89550912  0.16765642  0.29946996    -0.02300
C661        C  0.86512019  0.15861725  0.30697390     0.06300
C662        C  0.86859295  0.13543133  0.32953555     0.04400
H663        H  0.90251861  0.18526048  0.28253619     0.09500
H664        H  0.85001652  0.12303014  0.34171918     0.08400
C665        C  0.23281319  0.24156504  0.26809368     0.46700
H666        H  0.24870811  0.25671276  0.28227127    -0.02300
C667        C  0.19554092  0.20632901  0.23455902     0.46800
H668        H  0.17970331  0.19131763  0.22020051    -0.02300
C669        C  0.22282811  0.25659118  0.23675937    -0.16000
C670        C  0.24731898  0.20968639  0.25905332    -0.15700
C671        C  0.20178620  0.23343419  0.28484116    -0.16100
C672        C  0.20228921  0.23836265  0.21957317    -0.16100
C673        C  0.22810380  0.19169065  0.24015332    -0.15600
C674        C  0.18247154  0.21390379  0.26752715    -0.16000
N675        N  0.77737849  0.65084344  0.04586053    -0.26000
N676        N  0.79815712  0.63392669  0.06159553    -0.33900
C677        C  0.79380890  0.63865322  0.09263152     0.02300
C678        C  0.76891298  0.65936086  0.09651184     0.08400
C679        C  0.75899169  0.66650713  0.06636334    -0.04700
H680        H  0.80775809  0.62784880  0.11098041     0.09000
H681        H  0.74054506  0.68276989  0.05975710     0.10200
Cu682      Cu  0.83122607  0.60536750  0.03972350     0.44200
Cu683      Cu  0.77680537  0.65369841  0.99740410     0.42000
Cu684      Cu  0.83310500  0.60627608  0.95388443     0.43900
N685        N  0.86007343  0.57674636  0.01256844    -0.33400
N686        N  0.86060487  0.57680472  0.98139926    -0.27600
C687        C  0.88157876  0.55527218  0.97133971    -0.03700
C688        C  0.89481962  0.54105521  0.99743726     0.08500
C689        C  0.88068827  0.55522556  0.02314985     0.02300
H690        H  0.88691726  0.55048962  0.94685360     0.09900
H691        H  0.88509647  0.55034464  0.04776010     0.09000
N692        N  0.80277630  0.63836559  0.93311023    -0.34800
N693        N  0.78219787  0.65535580  0.94918743    -0.27000
C694        C  0.76544155  0.67306479  0.92915930    -0.02300
C695        C  0.77588806  0.66697238  0.89891586     0.06300
C696        C  0.79967219  0.64491657  0.90228322     0.04400
H697        H  0.74688507  0.68904949  0.93620236     0.09500
H698        H  0.81299396  0.63365078  0.88367389     0.08400
O699        O  0.49559947  0.44852146  0.03477915    -0.71700
O700        O  0.42774636  0.44834192  0.96919959    -0.72600
O701        O  0.49479142  0.44800196  0.96789360    -0.61300
O702        O  0.42891719  0.44912053  0.03600860    -0.69700
O703        O  0.42930191  0.50129856  0.03587162    -0.69200
O704        O  0.49495865  0.50017089  0.96766629    -0.60500
O705        O  0.42804758  0.50052461  0.96888262    -0.73000
O706        O  0.49610480  0.50070563  0.03462561    -0.71800
Cu707      Cu  0.46174583  0.44668050  0.00195311     1.04600
Cu708      Cu  0.46210003  0.50250935  0.00172028     1.04300
C709        C  0.50644025  0.47455011  0.04513117     0.94500
C710        C  0.41717394  0.47439662  0.95874493     0.93700
C711        C  0.50535363  0.47396595  0.95716679     0.85800
C712        C  0.41887869  0.47536900  0.04675723     0.92100
O713        O  0.49346515  0.00581765  0.46578162    -0.71700
O714        O  0.49312282  0.93901778  0.53320144    -0.72600
O715        O  0.49347672  0.93858948  0.46616335    -0.61300
O716        O  0.49314007  0.00611206  0.53291988    -0.69700
O717        O  0.44084864  0.00590268  0.53263293    -0.69200
O718        O  0.44118554  0.93888806  0.46606133    -0.60500
O719        O  0.44084884  0.93922415  0.53281868    -0.73000
O720        O  0.44119460  0.00579246  0.46571118    -0.71800
Cu721      Cu  0.49517327  0.97240490  0.49949858     1.04600
Cu722      Cu  0.43924786  0.97247856  0.49926552     1.04300
C723        C  0.46731225  0.01641856  0.45527264     0.94500
C724        C  0.46685820  0.92854581  0.54350749     0.93700
C725        C  0.46728841  0.92791807  0.45586728     0.85800
C726        C  0.46685887  0.01652027  0.54333368     0.92100
O727        O  0.92897619  0.50592760  0.52345930    -0.71700
O728        O  0.99881651  0.44235820  0.52438231    -0.72600
O729        O  0.99561734  0.50906609  0.52257525    -0.61300
O730        O  0.93164766  0.43939818  0.52553023    -0.69700
O731        O  0.93138741  0.43763106  0.47326128    -0.69200
O732        O  0.99527469  0.50790617  0.47028297    -0.60500
O733        O  0.99869759  0.44115491  0.47207404    -0.73000
O734        O  0.92844157  0.50443830  0.47114362    -0.71800
Cu735      Cu  0.96380932  0.47419190  0.52578042     1.04600
Cu736      Cu  0.96341494  0.47264950  0.46983892     1.04300
C737        C  0.91783044  0.51528443  0.49716339     0.94500
C738        C  0.01001594  0.43201675  0.49838862     0.93700
C739        C  0.00534657  0.51963571  0.49615929     0.85800
C740        C  0.92118237  0.42773885  0.49981509     0.92100
C741        C  0.12196641  0.17267550  0.31920261     0.24900
C742        C  0.09480478  0.17346292  0.30009083    -0.23200
C743        C  0.09698480  0.18749659  0.27011064     0.19800
C744        C  0.12527982  0.20083669  0.25981310     0.24800
C745        C  0.15225260  0.20016062  0.27897774    -0.23200
C746        C  0.15041031  0.18552485  0.30859798     0.19700
F747        F  0.17633853  0.18308559  0.32714315    -0.13100
F748        F  0.12103153  0.16008452  0.34851618    -0.15500
F749        F  0.12605644  0.21501720  0.23121720    -0.15500
F750        F  0.07195667  0.18776112  0.25024461    -0.13100
C751        C  0.23475490  0.31387160  0.24459007     0.24900
C752        C  0.23625211  0.28684147  0.22560351    -0.23200
C753        C  0.25058096  0.28873090  0.19581761     0.19800
C754        C  0.26202511  0.31739057  0.18463617     0.24800
C755        C  0.25996986  0.34479013  0.20328919    -0.23200
C756        C  0.24644808  0.34258011  0.23356977     0.19700
F757        F  0.24502760  0.36801903  0.25288059    -0.13100
F758        F  0.22122675  0.31267974  0.27355034    -0.15500
F759        F  0.27431517  0.31830694  0.15513567    -0.15500
F760        F  0.25376988  0.26266451  0.17754756    -0.13100
C761        C  0.18275020  0.72641165  0.33742894     0.24900
C762        C  0.18923635  0.70563877  0.31247851    -0.23200
C763        C  0.18423009  0.67334457  0.31660891     0.19800
C764        C  0.17170905  0.66203336  0.34488022     0.24800
C765        C  0.16441936  0.68284592  0.36970539    -0.23200
C766        C  0.17052452  0.71513400  0.36584656     0.19700
F767        F  0.16350470  0.73599515  0.38908047    -0.13100
F768        F  0.18801882  0.75768699  0.33414258    -0.15500
F769        F  0.16704740  0.63065780  0.34805636    -0.15500
F770        F  0.19035022  0.65286371  0.29278386    -0.13100
C771        C  0.22634131  0.60951794  0.20712472     0.24900
C772        C  0.25906761  0.60461400  0.20509952    -0.23200
C773        C  0.27958585  0.62905318  0.21385116     0.19800
C774        C  0.26761127  0.65802043  0.22383167     0.24800
C775        C  0.23497462  0.66317153  0.22492490    -0.23200
C776        C  0.21439871  0.63857502  0.21700988     0.19700
F777        F  0.18275316  0.64257151  0.21916980    -0.13100
F778        F  0.20587878  0.58654712  0.19857959    -0.15500
F779        F  0.28795569  0.68132209  0.23177192    -0.15500
F780        F  0.31126881  0.62474880  0.21327207    -0.13100
C781        C  0.12472278  0.72802067  0.27785397     0.24900
C782        C  0.14981261  0.74871404  0.27232655    -0.23200
C783        C  0.14570185  0.78099583  0.27749345     0.19800
C784        C  0.11716129  0.79244438  0.28917255     0.24800
C785        C  0.09208791  0.77177306  0.29521834    -0.23200
C786        C  0.09595534  0.73947967  0.28904253     0.19700
F787        F  0.07232102  0.71885761  0.29490896    -0.13100
F788        F  0.12817702  0.69671946  0.27257438    -0.15500
F789        F  0.11391464  0.82380829  0.29413055    -0.15500
F790        F  0.16973588  0.80131177  0.27226990    -0.13100
C791        C  0.11616327  0.78969110  0.71277454     0.24900
C792        C  0.09034447  0.76946653  0.70842524    -0.23200
C793        C  0.09350965  0.73748172  0.71634333     0.19800
C794        C  0.12250753  0.72575208  0.72661924     0.24800
C795        C  0.14861316  0.74576605  0.72909130    -0.23200
C796        C  0.14500115  0.77790071  0.72312931     0.19700
F797        F  0.16969206  0.79777784  0.72642846    -0.13100
F798        F  0.11349049  0.82097386  0.70722892    -0.15500
F799        F  0.12518814  0.69484709  0.73396382    -0.15500
F800        F  0.06903699  0.71727417  0.71292280    -0.13100
C801        C  0.16094843  0.66092668  0.65490121     0.24900
C802        C  0.15910948  0.68111852  0.62869820    -0.23200
C803        C  0.16986090  0.71230249  0.63199838     0.19800
C804        C  0.18235081  0.72286072  0.66063875     0.24800
C805        C  0.18472578  0.70244677  0.68637886    -0.23200
C806        C  0.17342462  0.67162357  0.68349801     0.19700
F807        F  0.17304870  0.65229271  0.70884030    -0.13100
F808        F  0.15110163  0.63066447  0.65288317    -0.15500
F809        F  0.19146278  0.75329210  0.66347067    -0.15500
F810        F  0.16728648  0.73302634  0.60790756    -0.13100
C811        C  0.33141970  0.75997163  0.73264249     0.24900
C812        C  0.33409428  0.76844752  0.70066668    -0.23200
C813        C  0.30789492  0.76433707  0.68075451     0.19800
C814        C  0.27952239  0.75266317  0.69270458     0.24800
C815        C  0.27669462  0.74524572  0.72474250    -0.23200
C816        C  0.30299910  0.74835286  0.74448807     0.19700
F817        F  0.30113416  0.74015528  0.77530492    -0.13100
F818        F  0.35592488  0.76393418  0.75278770    -0.15500
F819        F  0.25456161  0.74928099  0.67308608    -0.15500
F820        F  0.30982359  0.77111807  0.64958977    -0.13100
C821        C  0.61765483  0.75898387  0.68129716     0.24900
C822        C  0.59195339  0.76492113  0.70137870    -0.23200
C823        C  0.59515246  0.75918421  0.73390294     0.19800
C824        C  0.62392259  0.74890694  0.74617565     0.24800
C825        C  0.64961137  0.74363957  0.72607114    -0.23200
C826        C  0.64613645  0.74810593  0.69354911     0.19700
F827        F  0.67074557  0.74305552  0.67375527    -0.13100
F828        F  0.61514810  0.76336821  0.64972878    -0.15500
F829        F  0.62680515  0.74429674  0.77768431    -0.15500
F830        F  0.57088534  0.76468744  0.75400594    -0.13100
C831        C  0.71734242  0.69378377  0.83744507     0.24900
C832        C  0.73716580  0.69973254  0.81174893    -0.23200
C833        C  0.76988326  0.69668291  0.81524450     0.19800
C834        C  0.78259634  0.68635360  0.84374489     0.24800
C835        C  0.76271968  0.67939785  0.86928570    -0.23200
C836        C  0.72999457  0.68372894  0.86604218     0.19700
F837        F  0.71007025  0.67703106  0.89010185    -0.13100
F838        F  0.68571078  0.69759847  0.83477742    -0.15500
F839        F  0.81432855  0.68347024  0.84645107    -0.15500
F840        F  0.78945732  0.70274623  0.79072334    -0.13100
C841        C  0.67605727  0.81865824  0.81387543     0.24900
C842        C  0.66790440  0.84319517  0.79331598    -0.23200
C843        C  0.67125821  0.83866020  0.76062793     0.19800
C844        C  0.68156141  0.80970160  0.74870639     0.24800
C845        C  0.68900171  0.78502135  0.76931270    -0.23200
C846        C  0.68680936  0.78993184  0.80195532     0.19700
F847        F  0.69440438  0.76660685  0.82232932    -0.13100
F848        F  0.67416343  0.82267533  0.84557020    -0.15500
F849        F  0.68454304  0.80585798  0.71708485    -0.15500
F850        F  0.66361549  0.86191369  0.74018442    -0.13100
C851        C  0.80177944  0.72396540  0.71694438     0.24900
C852        C  0.77616098  0.74394942  0.72283468    -0.23200
C853        C  0.77913096  0.77631375  0.71753307     0.19800
C854        C  0.80729106  0.78858207  0.70590115     0.24800
C855        C  0.83306687  0.76862980  0.69995451    -0.23200
C856        C  0.83006810  0.73619756  0.70563667     0.19700
F857        F  0.85418653  0.71616013  0.69936941    -0.13100
F858        F  0.79938691  0.69261056  0.72219302    -0.15500
F859        F  0.80950274  0.82002180  0.70109532    -0.15500
F860        F  0.75442442  0.79591608  0.72278281    -0.13100
C861        C  0.64793708  0.62718026  0.79219521     0.24900
C862        C  0.66824297  0.60219952  0.79985332    -0.23200
C863        C  0.70077311  0.60552173  0.79419412     0.19800
C864        C  0.71274328  0.63346211  0.78167137     0.24800
C865        C  0.69239982  0.65841581  0.77435020    -0.23200
C866        C  0.65990757  0.65487457  0.77923262     0.19700
F867        F  0.63979012  0.67864670  0.77228316    -0.13100
F868        F  0.61638791  0.62461773  0.79664474    -0.15500
F869        F  0.74419978  0.63615885  0.77666041    -0.15500
F870        F  0.72114755  0.58210407  0.80167720    -0.13100
C871        C  0.68772590  0.15628229  0.80709520     0.24900
C872        C  0.69098945  0.15990803  0.77438931    -0.23200
C873        C  0.68488802  0.13427731  0.75445902     0.19800
C874        C  0.67502172  0.10555685  0.76697476     0.24800
C875        C  0.67100067  0.10197484  0.79973462    -0.23200
C876        C  0.67755943  0.12766301  0.81968370     0.19700
F877        F  0.67455730  0.12501438  0.85141231    -0.13100
F878        F  0.69345260  0.18079993  0.82680695    -0.15500
F879        F  0.66827940  0.08164728  0.74685595    -0.15500
F880        F  0.68840833  0.13711010  0.72280617    -0.13100
C881        C  0.65820451  0.28999192  0.78281505     0.24900
C882        C  0.69022284  0.28704571  0.77525357    -0.23200
C883        C  0.71006060  0.31319774  0.77822506     0.19800
C884        C  0.69811873  0.34190209  0.78912973     0.24800
C885        C  0.66618965  0.34470816  0.79786405    -0.23200
C886        C  0.64630435  0.31846575  0.79431593     0.19700
F887        F  0.61521839  0.32041382  0.80153330    -0.13100
F888        F  0.63866505  0.26490863  0.78008470    -0.15500
F889        F  0.71812701  0.36656075  0.79218537    -0.15500
F890        F  0.74104816  0.31087626  0.77066414    -0.13100
C891        C  0.59559364  0.17893476  0.73969723     0.24900
C892        C  0.59138391  0.17477971  0.70702697    -0.23200
C893        C  0.61604012  0.18286300  0.68646078     0.19800
C894        C  0.64439010  0.19456338  0.69830543     0.24800
C895        C  0.64883102  0.19797680  0.73088723    -0.23200
C896        C  0.62416988  0.19035627  0.75153586     0.19700
F897        F  0.62771090  0.19410781  0.78311233    -0.13100
F898        F  0.57244733  0.17101876  0.76024629    -0.15500
F899        F  0.66788914  0.20179887  0.67791243    -0.15500
F900        F  0.61254601  0.18001027  0.65478630    -0.13100
C901        C  0.30392843  0.15559397  0.69901577     0.24900
C902        C  0.33182946  0.17342701  0.70035409    -0.23200
C903        C  0.33017705  0.20447185  0.71192645     0.19800
C904        C  0.30177663  0.21674882  0.72334612     0.24800
C905        C  0.27445349  0.19816787  0.72395477    -0.23200
C906        C  0.27551918  0.16802911  0.71019991     0.19700
F907        F  0.24901099  0.15036241  0.70787716    -0.13100
F908        F  0.30417124  0.12559026  0.68810655    -0.15500
F909        F  0.30143959  0.24655283  0.73462688    -0.15500
F910        F  0.35598092  0.22324680  0.71203471    -0.13100
C911        C  0.25260517  0.78735026  0.80086353     0.24900
C912        C  0.24043266  0.78531524  0.77023986    -0.23200
C913        C  0.24125719  0.81185770  0.75077424     0.19800
C914        C  0.25290175  0.84046294  0.76224921     0.24800
C915        C  0.26424171  0.84290526  0.79340561    -0.23200
C916        C  0.26405102  0.81587475  0.81251658     0.19700
F917        F  0.27451700  0.81694451  0.84270494    -0.13100
F918        F  0.25499113  0.76128225  0.81899681    -0.15500
F919        F  0.25405175  0.86539958  0.74244811    -0.15500
F920        F  0.23150478  0.80987136  0.72038271    -0.13100
C921        C  0.22906967  0.10660433  0.79073826     0.24900
C922        C  0.26090075  0.10310518  0.79911052    -0.23200
C923        C  0.28097077  0.12921106  0.79659361     0.19800
C924        C  0.26959755  0.15795387  0.78545499     0.24800
C925        C  0.23824727  0.16096622  0.77479715    -0.23200
C926        C  0.21781756  0.13518539  0.77893920     0.19700
F927        F  0.18682038  0.13725847  0.77182454    -0.13100
F928        F  0.20849130  0.08255376  0.79471054    -0.15500
F929        F  0.28927395  0.18304681  0.78586622    -0.15500
F930        F  0.31193015  0.12684091  0.80419056    -0.13100
C931        C  0.20635470  0.26553039  0.36833294     0.24900
C932        C  0.17671335  0.28010650  0.37170025    -0.23200
C933        C  0.15547905  0.27906105  0.34622518     0.19800
C934        C  0.16374139  0.26413454  0.31808855     0.24800
C935        C  0.19290641  0.24877765  0.31507920    -0.23200
C936        C  0.21427296  0.24985143  0.34035410     0.19700
F937        F  0.24274646  0.23544583  0.33811356    -0.13100
F938        F  0.22799685  0.26696307  0.39182785    -0.15500
F939        F  0.14339590  0.26546535  0.29346533    -0.15500
F940        F  0.12626184  0.29178922  0.34858773    -0.13100
C941        C  0.17065370  0.29183710  0.65622540     0.24900
C942        C  0.16542522  0.27201257  0.63019311    -0.23200
C943        C  0.17213205  0.23973161  0.63298004     0.19800
C944        C  0.18354492  0.22753766  0.66140441     0.24800
C945        C  0.18860138  0.24742180  0.68739507    -0.23200
C946        C  0.18253876  0.27968352  0.68437592     0.19700
F947        F  0.18769209  0.29947904  0.70886054    -0.13100
F948        F  0.16507807  0.32318573  0.65420712    -0.15500
F949        F  0.18994108  0.19636429  0.66348016    -0.15500
F950        F  0.16689311  0.21985540  0.60845651    -0.13100
C951        C  0.11856761  0.15864853  0.70639097     0.24900
C952        C  0.09175796  0.17800181  0.70386157    -0.23200
C953        C  0.09438555  0.21003895  0.71214401     0.19800
C954        C  0.12307712  0.22222168  0.72287764     0.24800
C955        C  0.14951837  0.20262878  0.72565078    -0.23200
C956        C  0.14721826  0.17103484  0.71663074     0.19700
F957        F  0.17324475  0.15255810  0.71588275    -0.13100
F958        F  0.11718008  0.12758755  0.69922151    -0.15500
F959        F  0.12523080  0.25330779  0.72978661    -0.15500
F960        F  0.06961701  0.22992521  0.70876883    -0.13100
C961        C  0.80903934  0.15972352  0.70754988     0.24900
C962        C  0.83288191  0.18077919  0.69855231    -0.23200
C963        C  0.82801460  0.21324057  0.70280293     0.19800
C964        C  0.79958301  0.22441015  0.71527831     0.24800
C965        C  0.77563874  0.20331006  0.72378281    -0.23200
C966        C  0.78078593  0.17090690  0.72031387     0.19700
F967        F  0.75806762  0.15007371  0.72850645    -0.13100
F968        F  0.81333712  0.12823420  0.70464058    -0.15500
F969        F  0.79544798  0.25582335  0.71914672    -0.15500
F970        F  0.85041405  0.23420798  0.69405259    -0.13100
C971        C  0.27928201  0.16864712  0.28687348     0.24900
C972        C  0.27760677  0.19839378  0.27262496    -0.23200
C973        C  0.30471171  0.21725001  0.27187279     0.19800
C974        C  0.33319669  0.20617226  0.28434807     0.24800
C975        C  0.33514837  0.17586870  0.29763432    -0.23200
C976        C  0.30776327  0.15730600  0.29872731     0.19700
F977        F  0.30853970  0.12769979  0.31046260    -0.13100
F978        F  0.25314140  0.15054599  0.28972558    -0.15500
F979        F  0.35865498  0.22540991  0.28388578    -0.15500
F980        F  0.30383179  0.24614593  0.25843350    -0.13100
C981        C  0.64560439  0.19915558  0.30407919     0.24900
C982        C  0.65045827  0.20127993  0.27144477    -0.23200
C983        C  0.62571641  0.19351723  0.25086166     0.19800
C984        C  0.59744343  0.18156865  0.26263442     0.24800
C985        C  0.59313442  0.17797524  0.29528289    -0.23200
C986        C  0.61722420  0.18748112  0.31592688     0.19700
F987        F  0.61317395  0.18580913  0.34760586    -0.13100
F988        F  0.66865164  0.20759482  0.32452376    -0.15500
F989        F  0.57477440  0.17242095  0.24201021    -0.15500
F990        F  0.62884653  0.19761353  0.21933836    -0.13100
C991        C  0.80453517  0.21703207  0.27764744     0.24900
C992        C  0.77828804  0.19766529  0.27264577    -0.23200
C993        C  0.78108400  0.16518202  0.27749533     0.19800
C994        C  0.80933333  0.15237555  0.28857757     0.24800
C995        C  0.83539335  0.17189133  0.29457632    -0.23200
C996        C  0.83278586  0.20432311  0.28872160     0.19700
F997        F  0.85723580  0.22395967  0.29471444    -0.13100
F998        F  0.80291815  0.24825032  0.27153013    -0.15500
F999        F  0.81133329  0.12084366  0.29291496    -0.15500
F1000       F  0.75627961  0.14589378  0.27201143    -0.13100
C1001       C  0.66379603  0.31452200  0.18364514     0.24900
C1002       C  0.66385577  0.34167423  0.20272384    -0.23200
C1003       C  0.67658242  0.33968337  0.23328936     0.19800
C1004       C  0.68986699  0.31165869  0.24407658     0.24800
C1005       C  0.69130445  0.28502095  0.22444549    -0.23200
C1006       C  0.67706782  0.28647142  0.19452307     0.19700
F1007       F  0.67532975  0.26048208  0.17596652    -0.13100
F1008       F  0.65161447  0.31511167  0.15410234    -0.15500
F1009       F  0.70138721  0.31088751  0.27380086    -0.15500
F1010       F  0.67558613  0.36465490  0.25324365    -0.13100
C1011       C  0.76633300  0.69532056  0.17804068     0.24900
C1012       C  0.73379388  0.69712020  0.18360129    -0.23200
C1013       C  0.71274584  0.68751382  0.15989344     0.19800
C1014       C  0.72414549  0.67526373  0.13146423     0.24800
C1015       C  0.75675138  0.67256367  0.12631197    -0.23200
C1016       C  0.77773760  0.68294499  0.14971514     0.19700
F1017       F  0.80932841  0.68160100  0.14494768    -0.13100
F1018       F  0.78713796  0.70465653  0.20045157    -0.15500
F1019       F  0.70332981  0.66510481  0.10939985    -0.15500
F1020       F  0.68117132  0.69000863  0.16425944    -0.13100
C1021       C  0.71170099  0.63273820  0.21913671     0.24900
C1022       C  0.69138333  0.65796161  0.22570478    -0.23200
C1023       C  0.65871963  0.65375345  0.22322083     0.19800
C1024       C  0.64650412  0.62511790  0.21278556     0.24800
C1025       C  0.66679227  0.60002159  0.20540621    -0.23200
C1026       C  0.69947853  0.60385524  0.20923647     0.19700
F1027       F  0.71965468  0.58008043  0.20218917    -0.13100
F1028       F  0.74333987  0.63616689  0.22215714    -0.15500
F1029       F  0.61480991  0.62182886  0.21018244    -0.15500
F1030       F  0.63869054  0.67779518  0.22976773    -0.13100
C1031       C  0.78104191  0.77654919  0.27579207     0.24900
C1032       C  0.77789782  0.74423018  0.27017205    -0.23200
C1033       C  0.80359029  0.72420404  0.27571997     0.19800
C1034       C  0.83188796  0.73633157  0.28748041     0.24800
C1035       C  0.83470327  0.76865378  0.29423880    -0.23200
C1036       C  0.80906989  0.78864763  0.28802683     0.19700
F1037       F  0.81124526  0.82002698  0.29338682    -0.13100
F1038       F  0.75650252  0.79628884  0.27054336    -0.15500
F1039       F  0.85606766  0.71628172  0.29334068    -0.15500
F1040       F  0.80114122  0.69289063  0.26999839    -0.13100
C1041       C  0.71742169  0.25455895  0.83933765     0.24900
C1042       C  0.73684718  0.24850436  0.81324344    -0.23200
C1043       C  0.76954761  0.25223930  0.81613951     0.19800
C1044       C  0.78265423  0.26257513  0.84456072     0.24800
C1045       C  0.76323667  0.26891792  0.87070970    -0.23200
C1046       C  0.73049244  0.26465363  0.86786211     0.19700
F1047       F  0.71099664  0.27113172  0.89239505    -0.13100
F1048       F  0.68581141  0.25034053  0.83731154    -0.15500
F1049       F  0.81439729  0.26572988  0.84667070    -0.15500
F1050       F  0.78876371  0.24644930  0.79121008    -0.13100
C1051       C  0.75727829  0.23790763  0.13288758     0.24900
C1052       C  0.76909955  0.26864866  0.13057928    -0.23200
C1053       C  0.76859782  0.28801879  0.15752366     0.19800
C1054       C  0.75528871  0.27729575  0.18566484     0.24800
C1055       C  0.74159983  0.24718982  0.18738511    -0.23200
C1056       C  0.74404598  0.22720757  0.16100058     0.19700
F1057       F  0.73368577  0.19719093  0.16203190    -0.13100
F1058       F  0.75914475  0.21774708  0.10809891    -0.15500
F1059       F  0.75649537  0.29620730  0.21146030    -0.15500
F1060       F  0.78022558  0.31768611  0.15657635    -0.13100
C1061       C  0.67333557  0.10565122  0.23750854     0.24900
C1062       C  0.66447120  0.10213347  0.20567912    -0.23200
C1063       C  0.66749859  0.12800255  0.18530921     0.19800
C1064       C  0.67901514  0.15663330  0.19650724     0.24800
C1065       C  0.68843799  0.15985223  0.22799814    -0.23200
C1066       C  0.68512287  0.13433565  0.24855619     0.19700
F1067       F  0.69249337  0.13748526  0.27952942    -0.13100
F1068       F  0.66946445  0.08178899  0.25827504    -0.15500
F1069       F  0.67868131  0.18188499  0.17712984    -0.15500
F1070       F  0.65949513  0.12570543  0.15443101    -0.13100
C1071       C  0.67083213  0.81835902  0.18415847     0.24900
C1072       C  0.66487629  0.84323470  0.20531894    -0.23200
C1073       C  0.67178439  0.83908088  0.23750139     0.19800
C1074       C  0.68370345  0.81041898  0.24832913     0.24800
C1075       C  0.68918917  0.78558107  0.22717018    -0.23200
C1076       C  0.68318015  0.78989857  0.19499231     0.19700
F1077       F  0.68810181  0.76606481  0.17421239    -0.13100
F1078       F  0.66511002  0.82166093  0.15288112    -0.15500
F1079       F  0.68967111  0.80679561  0.27953629    -0.15500
F1080       F  0.66591210  0.86231276  0.25870440    -0.13100
C1081       C  0.15797519  0.70040265  0.18160187     0.24900
C1082       C  0.19070117  0.70353449  0.18500246    -0.23200
C1083       C  0.21036497  0.69714637  0.15916478     0.19800
C1084       C  0.19745783  0.68707530  0.13048483     0.24800
C1085       C  0.16470794  0.68264859  0.12745867    -0.23200
C1086       C  0.14509698  0.68970178  0.15323675     0.19700
F1087       F  0.11335830  0.68671875  0.15085366    -0.13100
F1088       F  0.13847713  0.70677159  0.20613827    -0.15500
F1089       F  0.21710258  0.68063410  0.10606161    -0.15500
F1090       F  0.24202849  0.70072057  0.16170758    -0.13100
C1091       C  0.17492249  0.66759568  0.81303206     0.24900
C1092       C  0.18924943  0.69739423  0.81146782    -0.23200
C1093       C  0.18854457  0.71679857  0.83832357     0.19800
C1094       C  0.17587807  0.70597194  0.86660387     0.24800
C1095       C  0.16292771  0.67565111  0.86863423    -0.23200
C1096       C  0.16219094  0.65670082  0.84137705     0.19700
F1097       F  0.14986898  0.62730432  0.84218626    -0.13100
F1098       F  0.17265169  0.64917801  0.78694632    -0.15500
F1099       F  0.17565760  0.72567923  0.89181253    -0.15500
F1100       F  0.20025705  0.74633747  0.83755563    -0.13100
C1101       C  0.74308813  0.71922381  0.65922008     0.24900
C1102       C  0.73713275  0.69880947  0.68442357    -0.23200
C1103       C  0.74251374  0.66649994  0.68065904     0.19800
C1104       C  0.75443355  0.65475891  0.65225208     0.24800
C1105       C  0.76079973  0.67519967  0.62703326    -0.23200
C1106       C  0.75487309  0.70755155  0.63076698     0.19700
F1107       F  0.76158669  0.72810020  0.60731994    -0.13100
F1108       F  0.73773442  0.75054067  0.66226634    -0.15500
F1109       F  0.75933360  0.62335821  0.64933440    -0.15500
F1110       F  0.73728690  0.64645273  0.70491143    -0.13100
C1111       C  0.75619440  0.70957765  0.36474759     0.24900
C1112       C  0.76212903  0.67722711  0.36839525    -0.23200
C1113       C  0.75601927  0.65669492  0.34307514     0.19800
C1114       C  0.74456627  0.66833098  0.31458350     0.24800
C1115       C  0.73947608  0.70063591  0.31078217    -0.23200
C1116       C  0.74503791  0.72118839  0.33606802     0.19700
F1117       F  0.73955326  0.75246059  0.33298140    -0.13100
F1118       F  0.76210333  0.73010707  0.38856015    -0.15500
F1119       F  0.73916316  0.64810878  0.29039378    -0.15500
F1120       F  0.76052784  0.62525945  0.34604215    -0.13100
C1121       C  0.25470572  0.84431987  0.23451123     0.24900
C1122       C  0.26112544  0.84720222  0.20209810    -0.23200
C1123       C  0.25548546  0.82142634  0.18206515     0.19800
C1124       C  0.24362853  0.79334084  0.19419226     0.24800
C1125       C  0.23804653  0.79023705  0.22661128    -0.23200
C1126       C  0.24351774  0.81591799  0.24671207     0.19700
F1127       F  0.23811382  0.81342252  0.27813319    -0.13100
F1128       F  0.26029107  0.86862240  0.25453392    -0.15500
F1129       F  0.23864228  0.76873715  0.17439845    -0.15500
F1130       F  0.26095917  0.82355482  0.15062750    -0.13100
C1131       C  0.27746263  0.13281259  0.19423221     0.24900
C1132       C  0.25852255  0.10564946  0.19524575    -0.23200
C1133       C  0.22876232  0.10762302  0.20993416     0.19800
C1134       C  0.21887326  0.13552606  0.22440861     0.24800
C1135       C  0.23821922  0.16222561  0.22409551    -0.23200
C1136       C  0.26714082  0.16087581  0.20798020     0.19700
F1137       F  0.28542899  0.18687803  0.20527692    -0.13100
F1138       F  0.30646689  0.13224325  0.18082894    -0.15500
F1139       F  0.19067574  0.13612019  0.23948570    -0.15500
F1140       F  0.20887066  0.08270559  0.21004217    -0.13100
C1141       C  0.14633493  0.26469006  0.84609987     0.24900
C1142       C  0.16579816  0.26738659  0.87280391    -0.23200
C1143       C  0.19784841  0.25913880  0.87022738     0.19800
C1144       C  0.21021894  0.24900603  0.84134148     0.24800
C1145       C  0.19075123  0.24687627  0.81472289    -0.23200
C1146       C  0.15872593  0.25437514  0.81739879     0.19700
F1147       F  0.13950857  0.25230269  0.79198236    -0.13100
F1148       F  0.11514267  0.27151906  0.84782421    -0.15500
F1149       F  0.24115300  0.24118790  0.83936720    -0.15500
F1150       F  0.21746400  0.26188239  0.89532778    -0.13100
C1151       C  0.18616559  0.22855279  0.16360930     0.24900
C1152       C  0.18658713  0.24848299  0.19001986    -0.23200
C1153       C  0.17150859  0.27784674  0.18825732     0.19800
C1154       C  0.15822431  0.28803394  0.15995643     0.24800
C1155       C  0.15876087  0.26855515  0.13301415    -0.23200
C1156       C  0.17212044  0.23831998  0.13551288     0.19700
F1157       F  0.17133084  0.21788490  0.11091625    -0.13100
F1158       F  0.20010747  0.19985013  0.16466207    -0.15500
F1159       F  0.14576809  0.31738306  0.15892521    -0.15500
F1160       F  0.16939264  0.29668931  0.21405389    -0.13100
C1161       C  0.22679971  0.34211751  0.78910554     0.24900
C1162       C  0.25790639  0.34456208  0.80038983    -0.23200
C1163       C  0.27715284  0.31758115  0.80027509     0.19800
C1164       C  0.26567856  0.28898375  0.78879765     0.24800
C1165       C  0.23493462  0.28679734  0.77697569    -0.23200
C1166       C  0.21530050  0.31333708  0.77796339     0.19700
F1167       F  0.18467484  0.31115518  0.76913671    -0.13100
F1168       F  0.20707089  0.36722757  0.78999710    -0.15500
F1169       F  0.28412036  0.26301759  0.79073406    -0.15500
F1170       F  0.30727621  0.31884885  0.81088067    -0.13100
C1171       C  0.26515154  0.62994999  0.81356735     0.24900
C1172       C  0.26657850  0.60355746  0.79356263    -0.23200
C1173       C  0.25505669  0.60623882  0.76260877     0.19800
C1174       C  0.24120821  0.63421680  0.75233362     0.24800
C1175       C  0.23869496  0.66025472  0.77272567    -0.23200
C1176       C  0.25208200  0.65812012  0.80302034     0.19700
F1177       F  0.25311613  0.68351005  0.82243403    -0.13100
F1178       F  0.27554024  0.62845177  0.84375960    -0.15500
F1179       F  0.23008861  0.63545644  0.72245617    -0.15500
F1180       F  0.25764188  0.58194504  0.74195559    -0.13100
C1181       C  0.33079653  0.76887259  0.26295247     0.24900
C1182       C  0.33481538  0.77229741  0.29570722    -0.23200
C1183       C  0.30999774  0.76401262  0.31597670     0.19800
C1184       C  0.28152796  0.75299106  0.30369396     0.24800
C1185       C  0.27726978  0.75045162  0.27099405    -0.23200
C1186       C  0.30226502  0.75794442  0.25071540     0.19700
F1187       F  0.29912227  0.75446248  0.21907015    -0.13100
F1188       F  0.35413920  0.77697915  0.24269729    -0.15500
F1189       F  0.25782435  0.74548738  0.32375437    -0.15500
F1190       F  0.31349466  0.76596712  0.34771766    -0.13100
C1191       C  0.64644890  0.74736780  0.30401000     0.24900
C1192       C  0.65050931  0.74523512  0.27127280    -0.23200
C1193       C  0.62521766  0.75236854  0.25122928     0.19800
C1194       C  0.59653214  0.76259359  0.26376170     0.24800
C1195       C  0.59273193  0.76575499  0.29657186    -0.23200
C1196       C  0.61784848  0.75770777  0.31658807     0.19700
F1197       F  0.61458464  0.75939704  0.34837103    -0.13100
F1198       F  0.67048399  0.74021732  0.32381627    -0.15500
F1199       F  0.57289262  0.77041965  0.24373270    -0.15500
F1200       F  0.62824989  0.74926919  0.21952841    -0.13100
C1201       C  0.73572754  0.27848576  0.68161953     0.24900
C1202       C  0.73289103  0.24591325  0.68579894    -0.23200
C1203       C  0.73988531  0.22566146  0.66056783     0.19800
C1204       C  0.75102018  0.23774127  0.63203877     0.24800
C1205       C  0.75558005  0.27033256  0.62837283    -0.23200
C1206       C  0.74727843  0.29060304  0.65328517     0.19700
F1207       F  0.75014742  0.32220194  0.65017729    -0.13100
F1208       F  0.72857903  0.29855162  0.70547989    -0.15500
F1209       F  0.75863820  0.21737832  0.60855482    -0.15500
F1210       F  0.73632128  0.19412880  0.66372253    -0.13100
C1211       C  0.74209762  0.22339073  0.33928394     0.24900
C1212       C  0.74146482  0.24300126  0.31282161    -0.23200
C1213       C  0.75378617  0.27344944  0.31510626     0.19800
C1214       C  0.76565733  0.28464872  0.34369207     0.24800
C1215       C  0.76608876  0.26526416  0.37054628    -0.23200
C1216       C  0.75423492  0.23438898  0.36794366     0.19700
F1217       F  0.75539442  0.21436459  0.39272905    -0.13100
F1218       F  0.73163575  0.19332981  0.33714863    -0.15500
F1219       F  0.77641266  0.31463091  0.34495386    -0.15500
F1220       F  0.75606534  0.29178657  0.28913930    -0.13100
loop_ 
_geom_bond_atom_site_label_1 
_geom_bond_atom_site_label_2 
_geom_bond_distance 
_geom_bond_site_symmetry_2 
_ccdc_geom_bond_type 
N1            N2   1.320       .  A
N1            C5   1.344       .  A
N1           Cu9   2.064       .  S
N2            C3   1.344       .  A
N2           Cu8   2.077       .  S
C3            C4   1.389       .  A
C3            H6   1.081       .  S
C4            C5   1.386       .  A
C4         C1215   1.487       .  S
C5            H7   1.082       .  S
Cu8          N11   2.077       .  S
Cu9          N19   2.064       .  S
Cu10         N12   2.096       .  S
Cu10         N18   2.096       .  S
N11          N12   1.324       .  A
N11          C15   1.346       .  A
N12          C13   1.349       .  A
C13          C14   1.388       .  A
C13          H16   1.082       .  S
C14          C15   1.382       .  A
C14         C740   1.477       .  S
C15          H17   1.082       .  S
N18          N19   1.323       .  A
N18          C22   1.348       .  A
N19          C20   1.343       .  A
C20          C21   1.382       .  A
C20          H23   1.082       .  S
C21          C22   1.389       .  A
C21        C1205   1.483       .  S
C22          H24   1.082       .  S
N25          N26   1.321       .  A
N25          C29   1.344       .  A
N25         Cu33   2.063       .  S
N26          C27   1.344       .  A
N26         Cu32   2.073       .  S
C27          C28   1.385       .  A
C27          H30   1.081       .  S
C28          C29   1.383       .  A
C28        C1195   1.477       .  S
C29          H31   1.082       .  S
Cu32         N35   2.074       .  S
Cu33         N43   2.063       .  S
Cu34         N36   2.077       .  S
Cu34         N42   2.077       .  S
N35          N36   1.323       .  A
N35          C39   1.346       .  A
N36          C37   1.345       .  A
C37          C38   1.383       .  A
C37          H40   1.082       .  S
C38          C39   1.383       .  A
C38         C725   1.470       .  S
C39          H41   1.082       .  S
N42          N43   1.321       .  A
N42          C46   1.345       .  A
N43          C44   1.343       .  A
C44          C45   1.382       .  A
C44          H47   1.082       .  S
C45          C46   1.386       .  A
C45        C1182   1.478       .  S
C46          H48   1.082       .  S
N49          N50   1.322       .  A
N49          C53   1.345       .  A
N49         Cu57   2.072       .  S
N50          C51   1.344       .  A
N50         Cu56   2.075       .  S
C51          C52   1.386       .  A
C51          H54   1.081       .  S
C52          C53   1.386       .  A
C52        C1162   1.483       .  S
C53          H55   1.082       .  S
Cu56         N59   2.075       .  S
Cu57         N67   2.072       .  S
Cu58         N60   2.066       .  S
Cu58         N66   2.066       .  S
N59          N60   1.322       .  A
N59          C63   1.345       .  A
N60          C61   1.344       .  A
C61          C62   1.381       .  A
C61          H64   1.082       .  S
C62          C63   1.383       .  A
C62         C710   1.467       .  S
C63          H65   1.082       .  S
N66          N67   1.321       .  A
N66          C70   1.343       .  A
N67          C68   1.344       .  A
C68          C69   1.386       .  A
C68          H71   1.081       .  S
C69          C70   1.386       .  A
C69        C1172   1.483       .  S
C70          H72   1.081       .  S
N73          N74   1.320       .  A
N73          C77   1.343       .  A
N73         Cu81   2.072       .  S
N74          C75   1.344       .  A
N74         Cu80   2.068       .  S
C75          C76   1.388       .  A
C75          H78   1.081       .  S
C76          C77   1.388       .  A
C76        C1155   1.486       .  S
C77          H79   1.081       .  S
Cu80         N83   2.067       .  S
Cu81         N91   2.072   1_554  S
Cu82         N84   2.072       .  S
Cu82         N90   2.072       .  S
N83          N84   1.322   1_554  A
N83          C87   1.344       .  A
N84          C85   1.345       .  A
C85          C86   1.383       .  A
C85          H88   1.082       .  S
C86          C87   1.381   1_556  A
C86         C181   1.467       .  S
C87          H89   1.082       .  S
N90          N91   1.322       .  A
N90          C94   1.343       .  A
N91          C92   1.345       .  A
C92          C93   1.385       .  A
C92          H95   1.082       .  S
C93          C94   1.385       .  A
C93        C1142   1.480       .  S
C94          H96   1.082       .  S
N97          N98   1.322       .  A
N97         C101   1.345       .  A
N97        Cu105   2.071       .  S
N98          C99   1.345       .  A
N98        Cu104   2.075       .  S
C99         C100   1.385       .  A
C99         H102   1.082       .  S
C100        C101   1.384       .  A
C100       C1122   1.479       .  S
C101        H103   1.082       .  S
Cu104       N107   2.075       .  S
Cu105       N115   2.071   1_565  S
Cu106       N108   2.073   1_545  S
Cu106       N114   2.074       .  S
N107        N108   1.323       .  A
N107        C111   1.345       .  A
N108        C109   1.345       .  A
C109        C110   1.382       .  A
C109        H112   1.082   1_565  S
C110        C111   1.383       .  A
C110        C217   1.468       .  S
C111        H113   1.082       .  S
N114        N115   1.320       .  A
N114        C118   1.345       .  A
N115        C116   1.343       .  A
C116        C117   1.388       .  A
C116        H119   1.081       .  S
C117        C118   1.389       .  A
C117       C1132   1.489       .  S
C118        H120   1.081       .  S
N121        N122   1.321       .  A
N121        C125   1.344       .  A
N121       Cu129   2.065       .  S
N122        C123   1.343       .  A
N122       Cu128   2.071       .  S
C123        C124   1.385       .  A
C123        H126   1.082       .  S
C124        C125   1.383       .  A
C124       C1112   1.477       .  S
C125        H127   1.082       .  S
Cu128       N131   2.071       .  S
Cu129       N139   2.065       .  S
Cu130       N132   2.069       .  S
Cu130       N138   2.069       .  S
N131        N132   1.322       .  A
N131        C135   1.345       .  A
N132        C133   1.344       .  A
C133        C134   1.381       .  A
C133        H136   1.082       .  S
C134        C135   1.382       .  A
C134        C737   1.466       .  S
C135        H137   1.082       .  S
N138        N139   1.321       .  A
N138        C142   1.344       .  A
N139        C140   1.343       .  A
C140        C141   1.384       .  A
C140        H143   1.082       .  S
C141        C142   1.385       .  A
C141       C1105   1.478       .  S
C142        H144   1.082       .  S
N145        N146   1.322       .  A
N145        C149   1.345       .  A
N145       Cu153   2.069   1_554  S
N146        C147   1.346       .  A
N146       Cu152   2.083       .  S
C147        C148   1.387       .  A
C147        H150   1.082       .  S
C148        C149   1.383       .  A
C148       C1085   1.481       .  S
C149        H151   1.082       .  S
Cu152       N155   2.083       .  S
Cu153       N163   2.069       .  S
Cu154       N156   2.061       .  S
Cu154       N162   2.061       .  S
N155        N156   1.323   1_554  A
N155        C159   1.346       .  A
N156        C157   1.343       .  A
C157        C158   1.379   1_556  A
C157        H160   1.082       .  S
C158        C159   1.384       .  A
C158        C179   1.466   1_554  S
C159        H161   1.082       .  S
N162        N163   1.320       .  A
N162        C166   1.344       .  A
N163        C164   1.342       .  A
C164        C165   1.387       .  A
C164        H167   1.081       .  S
C165        C166   1.386       .  A
C165       C1095   1.483       .  S
C166        H168   1.081       .  S
O169       Cu177   2.002       .  S
O169        C179   1.276   1_654  A
O170       Cu177   2.001       .  S
O170        C180   1.276   1_554  A
O171       Cu177   2.008       .  S
O171        C181   1.278   1_654  A
O172       Cu177   2.010       .  S
O172        C182   1.278   1_554  A
O173       Cu178   2.007       .  S
O173        C182   1.277       .  A
O174       Cu178   2.007       .  S
O174        C181   1.277   1_655  A
O175       Cu178   2.011       .  S
O175        C180   1.278       .  A
O176       Cu178   2.009       .  S
O176        C179   1.278   1_655  A
Cu177      Cu178   2.377   1_554  S
C180        C234   1.466       .  S
C182        C688   1.468       .  S
N183        N184   1.322       .  A
N183        C187   1.345       .  A
N183       Cu191   2.071       .  S
N184        C185   1.345       .  A
N184       Cu190   2.078       .  S
C185        C186   1.386       .  A
C185        H188   1.082       .  S
C186        C187   1.385       .  A
C186       C1072   1.482       .  S
C187        H189   1.082       .  S
Cu190       N193   2.078       .  S
Cu191       N201   2.070   1_565  S
Cu192       N194   2.074   1_545  S
Cu192       N200   2.074       .  S
N193        N194   1.322       .  A
N193        C197   1.346       .  A
N194        C195   1.346       .  A
C195        C196   1.383       .  A
C195        H198   1.082   1_565  S
C196        C197   1.384       .  A
C196        C219   1.471       .  S
C197        H199   1.082       .  S
N200        N201   1.321       .  A
N200        C204   1.343       .  A
N201        C202   1.345       .  A
C202        C203   1.386       .  A
C202        H205   1.081       .  S
C203        C204   1.387       .  A
C203       C1062   1.483       .  S
C204        H206   1.081       .  S
O207       Cu215   2.010   1_554  S
O207        C217   1.278       .  A
O208       Cu215   2.011       .  S
O208        C218   1.278       .  A
O209       Cu215   2.013   1_554  S
O209        C219   1.278       .  A
O210       Cu215   2.013       .  S
O210        C220   1.278       .  A
O211       Cu216   2.013   1_565  S
O211        C220   1.278       .  A
O212       Cu216   2.012   1_564  S
O212        C219   1.278       .  A
O213       Cu216   2.008   1_565  S
O213        C218   1.277       .  A
O214       Cu216   2.007   1_564  S
O214        C217   1.277       .  A
Cu215      Cu216   2.376   1_565  S
C218        C630   1.469       .  S
C220        C388   1.471       .  S
N221        N222   1.321       .  A
N221        C225   1.344       .  A
N221       Cu229   2.075       .  S
N222        C223   1.345       .  A
N222       Cu228   2.069       .  S
C223        C224   1.386       .  A
C223        H226   1.081       .  S
C224        C225   1.387       .  A
C224       C1052   1.483       .  S
C225        H227   1.082       .  S
Cu228       N231   2.069       .  S
Cu229       N239   2.075   1_554  S
Cu230       N232   2.070       .  S
Cu230       N238   2.070       .  S
N231        N232   1.322   1_554  A
N231        C235   1.343       .  A
N232        C233   1.345       .  A
C233        C234   1.382       .  A
C233        H236   1.082       .  S
C234        C235   1.382   1_556  A
C235        H237   1.082       .  S
N238        N239   1.322       .  A
N238        C242   1.344       .  A
N239        C240   1.345       .  A
C240        C241   1.385       .  A
C240        H243   1.082       .  S
C241        C242   1.384       .  A
C241       C1045   1.480       .  S
C242        H244   1.082       .  S
C245        H246   1.112       .  S
C245        C251   1.530       .  S
C245        C250   1.530       .  S
C245        C249   1.531       .  S
C247        H248   1.111       .  S
C247        C253   1.536       .  S
C247        C252   1.536       .  S
C247        C254   1.539       .  S
C249        C252   1.373       .  D
C249       C1192   1.478       .  S
C250        C253   1.371       .  D
C250       C1115   1.475       .  S
C251        C254   1.374       .  D
C251       C1022   1.477       .  S
C252       C1075   1.480       .  S
C253       C1032   1.479       .  S
C254       C1012   1.481       .  S
N255        N256   1.320       .  A
N255        C259   1.343       .  A
N255       Cu263   2.069       .  S
N256        C257   1.345       .  A
N256       Cu262   2.074       .  S
C257        C258   1.388       .  A
C257        H260   1.081       .  S
C258        C259   1.387       .  A
C258       C1002   1.486       .  S
C259        H261   1.081       .  S
Cu262       N265   2.074       .  S
Cu263       N273   2.068       .  S
Cu264       N266   2.070       .  S
Cu264       N272   2.070       .  S
N265        N266   1.323       .  A
N265        C269   1.344       .  A
N266        C267   1.345       .  A
C267        C268   1.382       .  A
C267        H270   1.082       .  S
C268        C269   1.382       .  A
C268        C709   1.467       .  S
C269        H271   1.082       .  S
N272        N273   1.322       .  A
N272        C276   1.344       .  A
N273        C274   1.344       .  A
C274        C275   1.383       .  A
C274        H277   1.082       .  S
C275        C276   1.383       .  A
C275       C1025   1.475       .  S
C276        H278   1.082       .  S
C279        H280   1.109       .  S
C279        C285   1.530       .  S
C279        C284   1.538       .  S
C279        C283   1.542       .  S
C281        H282   1.110       .  S
C281        C287   1.533       .  S
C281        C286   1.540       .  S
C281        C288   1.540       .  S
C283        C286   1.383       .  D
C283       C1055   1.496       .  S
C284        C287   1.371       .  D
C284       C1065   1.479       .  S
C285        C288   1.369       .  D
C285        C992   1.481       .  S
C286       C1005   1.493       .  S
C287        C982   1.484       .  S
C288       C1212   1.480       .  S
N289        N290   1.322       .  A
N289        C293   1.343       .  A
N289       Cu297   2.065       .  S
N290        C291   1.345       .  A
N290       Cu296   2.080       .  S
C291        C292   1.386       .  A
C291        H294   1.082       .  S
C292        C293   1.382       .  A
C292        C985   1.477       .  S
C293        H295   1.082       .  S
Cu296       N299   2.080       .  S
Cu297       N307   2.065       .  S
Cu298       N300   2.086       .  S
Cu298       N306   2.085       .  S
N299        N300   1.323       .  A
N299        C303   1.347       .  A
N300        C301   1.347       .  A
C301        C302   1.385       .  A
C301        H304   1.082       .  S
C302        C303   1.384       .  A
C302        C723   1.475       .  S
C303        H305   1.082       .  S
N306        N307   1.321       .  A
N306        C310   1.345       .  A
N307        C308   1.344       .  A
C308        C309   1.386       .  A
C308        H311   1.081       .  S
C309        C310   1.390       .  A
C309        C975   1.488       .  S
C310        H312   1.081       .  S
N313        N314   1.321       .  A
N313        C317   1.344       .  A
N313       Cu321   2.069   1_455  S
N314        C315   1.344       .  A
N314       Cu320   2.078       .  S
C315        C316   1.388       .  A
C315        H318   1.081       .  S
C316        C317   1.386       .  A
C316        C952   1.485       .  S
C317        H319   1.081       .  S
Cu320       N323   2.078   1_455  S
Cu321       N331   2.069       .  S
Cu322       N324   2.081       .  S
Cu322       N330   2.081       .  S
N323        N324   1.323       .  A
N323        C327   1.347       .  A
N324        C325   1.346       .  A
C325        C326   1.384       .  A
C325        H328   1.082       .  S
C326        C327   1.384       .  A
C326        C347   1.473       .  S
C327        H329   1.082   1_655  S
N330        N331   1.322       .  A
N330        C334   1.346       .  A
N331        C332   1.345       .  A
C332        C333   1.383       .  A
C332        H335   1.082       .  S
C333        C334   1.386       .  A
C333        C962   1.480       .  S
C334        H336   1.082       .  S
O337       Cu345   2.019   1_545  S
O337        C347   1.279       .  A
O338       Cu345   2.018       .  S
O338        C348   1.279       .  A
O339       Cu345   2.007   1_545  S
O339        C349   1.277       .  A
O340       Cu345   2.007       .  S
O340        C350   1.277       .  A
O341       Cu346   2.009       .  S
O341        C350   1.278       .  A
O342       Cu346   2.011   1_545  S
O342        C349   1.278       .  A
O343       Cu346   2.013       .  S
O343        C348   1.277       .  A
O344       Cu346   2.012   1_545  S
O344        C347   1.278       .  A
Cu345      Cu346   2.375       .  S
C348        C524   1.473       .  S
C349        C654   1.468       .  S
C350        C606   1.467       .  S
N351        N352   1.322       .  A
N351        C355   1.345       .  A
N351       Cu359   2.072       .  S
N352        C353   1.345       .  A
N352       Cu358   2.078       .  S
C353        C354   1.386       .  A
C353        H356   1.082       .  S
C354        C355   1.384       .  A
C354        C942   1.480       .  S
C355        H357   1.082       .  S
Cu358       N361   2.077       .  S
Cu359       N369   2.071       .  S
Cu360       N362   2.075       .  S
Cu360       N368   2.075       .  S
N361        N362   1.323       .  A
N361        C365   1.345       .  A
N362        C363   1.346       .  A
C363        C364   1.384       .  A
C363        H366   1.082       .  S
C364        C365   1.383       .  A
C364        C738   1.470       .  S
C365        H367   1.082       .  S
N368        N369   1.321       .  A
N368        C372   1.343       .  A
N369        C370   1.345       .  A
C370        C371   1.386       .  A
C370        H373   1.082       .  S
C371        C372   1.388       .  A
C371        C932   1.485       .  S
C372        H374   1.081       .  S
N375        N376   1.322       .  A
N375        C379   1.346       .  A
N375       Cu383   2.079       .  S
N376        C377   1.344       .  A
N376       Cu382   2.077       .  S
C377        C378   1.388       .  A
C377        H380   1.081       .  S
C378        C379   1.388       .  A
C378        C915   1.488       .  S
C379        H381   1.081       .  S
Cu382       N385   2.077       .  S
Cu383       N393   2.079   1_565  S
Cu384       N386   2.076   1_545  S
Cu384       N392   2.076       .  S
N385        N386   1.322       .  A
N385        C389   1.346       .  A
N386        C387   1.346       .  A
C387        C388   1.384       .  A
C387        H390   1.082   1_565  S
C388        C389   1.384       .  A
C389        H391   1.082       .  S
N392        N393   1.322       .  A
N392        C396   1.345       .  A
N393        C394   1.346       .  A
C394        C395   1.387       .  A
C394        H397   1.082       .  S
C395        C396   1.386       .  A
C395        C922   1.485       .  S
C396        H398   1.082       .  S
C399        H400   1.109       .  S
C399        C405   1.530       .  S
C399        C404   1.540       .  S
C399        C403   1.542       .  S
C401        H402   1.110       .  S
C401        C407   1.535       .  S
C401        C406   1.545       .  S
C401        C408   1.542       .  S
C403        C406   1.386       .  D
C403        C925   1.504       .  S
C404        C407   1.370       .  D
C404        C955   1.479       .  S
C405        C408   1.367       .  D
C405       C1145   1.478       .  S
C406        C905   1.495       .  S
C407        C945   1.485       .  S
C408       C1165   1.481       .  S
N409        N410   1.322       .  A
N409        C413   1.345       .  A
N409       Cu417   2.075       .  S
N410        C411   1.344       .  A
N410       Cu416   2.075       .  S
C411        C412   1.385       .  A
C411        H414   1.082       .  S
C412        C413   1.385       .  A
C412        C892   1.480       .  S
C413        H415   1.081       .  S
Cu416       N419   2.074       .  S
Cu417       N427   2.075       .  S
Cu418       N420   2.076       .  S
Cu418       N426   2.076       .  S
N419        N420   1.323       .  A
N419        C423   1.346       .  A
N420        C421   1.345       .  A
C421        C422   1.383       .  A
C421        H424   1.082       .  S
C422        C423   1.383       .  A
C422        C726   1.469       .  S
C423        H425   1.082       .  S
N426        N427   1.321       .  A
N426        C430   1.345       .  A
N427        C428   1.344       .  A
C428        C429   1.388       .  A
C428        H431   1.081       .  S
C429        C430   1.388       .  A
C429        C902   1.489       .  S
C430        H432   1.081       .  S
C433        H434   1.112       .  S
C433        C439   1.536       .  S
C433        C438   1.534       .  S
C433        C437   1.535       .  S
C435        H436   1.111       .  S
C435        C441   1.535       .  S
C435        C440   1.538       .  S
C435        C442   1.536       .  S
C437        C440   1.374       .  D
C437       C1202   1.483       .  S
C438        C441   1.373       .  D
C438        C882   1.479       .  S
C439        C442   1.374       .  D
C439        C895   1.480       .  S
C440        C965   1.483       .  S
C441       C1042   1.480       .  S
C442        C872   1.482       .  S
N443        N444   1.321       .  A
N443        C447   1.344       .  A
N443       Cu451   2.068       .  S
N444        C445   1.346       .  A
N444       Cu450   2.080       .  S
C445        C446   1.388       .  A
C445        H448   1.082       .  S
C446        C447   1.385       .  A
C446        C885   1.484       .  S
C447        H449   1.082       .  S
Cu450       N453   2.080       .  S
Cu451       N461   2.068       .  S
Cu452       N454   2.083       .  S
Cu452       N460   2.083       .  S
N453        N454   1.324       .  A
N453        C457   1.346       .  A
N454        C455   1.346       .  A
C455        C456   1.384       .  A
C455        H458   1.082       .  S
C456        C457   1.383       .  A
C456        C711   1.472       .  S
C457        H459   1.082       .  S
N460        N461   1.321       .  A
N460        C464   1.347       .  A
N461        C462   1.344       .  A
C462        C463   1.383       .  A
C462        H465   1.081       .  S
C463        C464   1.388       .  A
C463        C862   1.483       .  S
C464        H466   1.082       .  S
C467        H468   1.112       .  S
C467        C473   1.532       .  S
C467        C472   1.530       .  S
C467        C471   1.533       .  S
C469        H470   1.111       .  S
C469        C475   1.535       .  S
C469        C474   1.535       .  S
C469        C476   1.535       .  S
C471        C474   1.373       .  D
C471        C845   1.481       .  S
C472        C475   1.371       .  D
C472        C852   1.474       .  S
C473        C476   1.373       .  D
C473        C832   1.475       .  S
C474        C825   1.474       .  S
C475       C1102   1.478       .  S
C476        C865   1.483       .  S
N477        N478   1.321       .  A
N477        C481   1.344       .  A
N477       Cu485   2.063       .  S
N478        C479   1.344       .  A
N478       Cu484   2.077       .  S
C479        C480   1.386       .  A
C479        H482   1.082       .  S
C480        C481   1.383       .  A
C480        C822   1.478       .  S
C481        H483   1.082       .  S
Cu484       N487   2.078       .  S
Cu485       N495   2.063       .  S
Cu486       N488   2.089       .  S
Cu486       N494   2.088       .  S
N487        N488   1.323       .  A
N487        C491   1.347       .  A
N488        C489   1.347       .  A
C489        C490   1.385       .  A
C489        H492   1.082       .  S
C490        C491   1.384       .  A
C490        C724   1.474       .  S
C491        H493   1.082       .  S
N494        N495   1.321       .  A
N494        C498   1.347       .  A
N495        C496   1.343       .  A
C496        C497   1.384       .  A
C496        H499   1.082       .  S
C497        C498   1.389       .  A
C497        C812   1.484       .  S
C498        H500   1.082       .  S
C501        H502   1.110       .  S
C501        C507   1.538       .  S
C501        C506   1.539       .  S
C501        C505   1.528       .  S
C503        H504   1.109       .  S
C503        C509   1.533       .  S
C503        C508   1.540       .  S
C503        C510   1.543       .  S
C505        C508   1.369       .  D
C505        C795   1.475       .  S
C506        C509   1.369       .  D
C506        C912   1.481       .  S
C507        C510   1.383       .  D
C507       C1092   1.493       .  S
C508        C805   1.481       .  S
C509        C815   1.482       .  S
C510       C1175   1.494       .  S
N511        N512   1.321       .  A
N511        C515   1.343       .  A
N511       Cu519   2.058   1_455  S
N512        C513   1.344       .  A
N512       Cu518   2.073       .  S
C513        C514   1.385       .  A
C513        H516   1.082       .  S
C514        C515   1.382       .  A
C514        C785   1.475       .  S
C515        H517   1.082       .  S
Cu518       N521   2.074   1_455  S
Cu519       N529   2.059       .  S
Cu520       N522   2.088       .  S
Cu520       N528   2.087       .  S
N521        N522   1.323       .  A
N521        C525   1.345       .  A
N522        C523   1.347       .  A
C523        C524   1.386       .  A
C523        H526   1.082       .  S
C524        C525   1.382       .  A
C525        H527   1.082   1_655  S
N528        N529   1.322       .  A
N528        C532   1.346       .  A
N529        C530   1.343       .  A
C530        C531   1.382       .  A
C530        H533   1.082       .  S
C531        C532   1.388       .  A
C531       C1035   1.480       .  S
C532        H534   1.082       .  S
C535        H536   1.111       .  S
C535        C541   1.537       .  S
C535        C540   1.535       .  S
C535        C539   1.533       .  S
C537        H538   1.112       .  S
C537        C543   1.534       .  S
C537        C542   1.534       .  S
C537        C544   1.534       .  S
C539        C542   1.371       .  D
C539        C762   1.482       .  S
C540        C543   1.373       .  D
C540       C1185   1.480       .  S
C541        C544   1.375       .  D
C541        C775   1.480       .  S
C542        C782   1.475       .  S
C543       C1125   1.480       .  S
C544       C1082   1.482       .  S
N545        N546   1.321       .  A
N545        C549   1.346       .  A
N545       Cu553   2.078       .  S
N546        C547   1.344       .  A
N546       Cu552   2.073       .  S
C547        C548   1.388       .  A
C547        H550   1.081       .  S
C548        C549   1.389       .  A
C548        C755   1.489       .  S
C549        H551   1.081       .  S
Cu552       N555   2.073       .  S
Cu553       N563   2.077       .  S
Cu554       N556   2.073       .  S
Cu554       N562   2.073       .  S
N555        N556   1.322       .  A
N555        C559   1.344       .  A
N556        C557   1.346       .  A
C557        C558   1.384       .  A
C557        H560   1.082       .  S
C558        C559   1.382       .  A
C558        C712   1.469       .  S
C559        H561   1.082       .  S
N562        N563   1.323       .  A
N562        C566   1.344       .  A
N563        C564   1.345       .  A
C564        C565   1.385       .  A
C564        H567   1.082       .  S
C565        C566   1.384       .  A
C565        C772   1.479       .  S
C566        H568   1.082       .  S
N569        N570   1.321       .  A
N569        C573   1.344       .  A
N569       Cu577   2.071       .  S
N570        C571   1.346       .  A
N570       Cu576   2.079       .  S
C571        C572   1.389       .  A
C571        H574   1.081       .  S
C572        C573   1.387       .  A
C572        C802   1.487       .  S
C573        H575   1.082       .  S
Cu576       N579   2.079       .  S
Cu577       N587   2.072       .  S
Cu578       N580   2.086       .  S
Cu578       N586   2.085       .  S
N579        N580   1.323       .  A
N579        C583   1.345       .  A
N580        C581   1.349       .  A
C581        C582   1.386       .  A
C581        H584   1.082       .  S
C582        C583   1.383       .  A
C582        C739   1.475       .  S
C583        H585   1.082       .  S
N586        N587   1.322       .  A
N586        C590   1.346       .  A
N587        C588   1.345       .  A
C588        C589   1.385       .  A
C588        H591   1.082       .  S
C589        C590   1.387       .  A
C589        C765   1.483       .  S
C590        H592   1.082       .  S
N593        N594   1.321       .  A
N593        C597   1.343       .  A
N593       Cu601   2.056   1_455  S
N594        C595   1.343       .  A
N594       Cu600   2.076       .  S
C595        C596   1.386       .  A
C595        H598   1.082       .  S
C596        C597   1.382       .  A
C596        C792   1.478       .  S
C597        H599   1.082       .  S
Cu600       N603   2.077   1_455  S
Cu601       N611   2.056       .  S
Cu602       N604   2.067       .  S
Cu602       N610   2.067       .  S
N603        N604   1.323       .  A
N603        C607   1.346       .  A
N604        C605   1.343       .  A
C605        C606   1.380       .  A
C605        H608   1.082       .  S
C606        C607   1.384       .  A
C607        H609   1.082   1_655  S
N610        N611   1.320       .  A
N610        C614   1.344       .  A
N611        C612   1.341       .  A
C612        C613   1.382       .  A
C612        H615   1.082       .  S
C613        C614   1.385       .  A
C613        C855   1.475       .  S
C614        H616   1.082       .  S
N617        N618   1.321       .  A
N617        C621   1.344       .  A
N617       Cu625   2.076   1_545  S
N618        C619   1.346       .  A
N618       Cu624   2.076       .  S
C619        C620   1.387       .  A
C619        H622   1.082       .  S
C620        C621   1.386       .  A
C620        C875   1.485       .  S
C621        H623   1.081       .  S
Cu624       N627   2.076   1_545  S
Cu625       N635   2.075       .  S
Cu626       N628   2.075       .  S
Cu626       N634   2.075       .  S
N627        N628   1.323       .  A
N627        C631   1.345       .  A
N628        C629   1.346       .  A
C629        C630   1.383       .  A
C629        H632   1.082       .  S
C630        C631   1.382       .  A
C631        H633   1.082   1_565  S
N634        N635   1.322       .  A
N634        C638   1.345       .  A
N635        C636   1.346       .  A
C636        C637   1.384       .  A
C636        H639   1.082       .  S
C637        C638   1.384       .  A
C637        C842   1.478       .  S
C638        H640   1.082       .  S
N641        N642   1.320       .  A
N641        C645   1.345       .  A
N641       Cu649   2.076   1_455  S
N642        C643   1.346       .  A
N642       Cu648   2.079       .  S
C643        C644   1.390       .  A
C643        H646   1.081       .  S
C644        C645   1.389       .  A
C644        C742   1.492       .  S
C645        H647   1.081       .  S
Cu648       N651   2.079   1_455  S
Cu649       N659   2.075       .  S
Cu650       N652   2.073       .  S
Cu650       N658   2.073       .  S
N651        N652   1.323       .  A
N651        C655   1.345       .  A
N652        C653   1.346       .  A
C653        C654   1.382       .  A
C653        H656   1.082       .  S
C654        C655   1.383       .  A
C655        H657   1.082   1_655  S
N658        N659   1.322       .  A
N658        C662   1.345       .  A
N659        C660   1.344       .  A
C660        C661   1.384       .  A
C660        H663   1.082       .  S
C661        C662   1.385       .  A
C661        C995   1.480       .  S
C662        H664   1.082       .  S
C665        H666   1.110       .  S
C665        C671   1.537       .  S
C665        C670   1.537       .  S
C665        C669   1.537       .  S
C667        H668   1.109       .  S
C667        C673   1.535       .  S
C667        C672   1.534       .  S
C667        C674   1.538       .  S
C669        C672   1.376       .  D
C669        C752   1.487       .  S
C670        C673   1.376       .  D
C670        C972   1.489       .  S
C671        C674   1.379       .  D
C671        C935   1.486       .  S
C672       C1152   1.485       .  S
C673       C1135   1.488       .  S
C674        C745   1.493       .  S
N675        N676   1.321       .  A
N675        C679   1.344       .  A
N675       Cu683   2.061   1_554  S
N676        C677   1.344       .  A
N676       Cu682   2.073       .  S
C677        C678   1.385       .  A
C677        H680   1.082       .  S
C678        C679   1.382       .  A
C678       C1015   1.475       .  S
C679        H681   1.082       .  S
Cu682       N685   2.073       .  S
Cu683       N693   2.060       .  S
Cu684       N686   2.075       .  S
Cu684       N692   2.075       .  S
N685        N686   1.323   1_554  A
N685        C689   1.344       .  A
N686        C687   1.345       .  A
C687        C688   1.383       .  A
C687        H690   1.082       .  S
C688        C689   1.382   1_556  A
C689        H691   1.082       .  S
N692        N693   1.322       .  A
N692        C696   1.345       .  A
N693        C694   1.342       .  A
C694        C695   1.382       .  A
C694        H697   1.082       .  S
C695        C696   1.386       .  A
C695        C835   1.476       .  S
C696        H698   1.082       .  S
O699       Cu707   2.004       .  S
O699        C709   1.277       .  A
O700       Cu707   2.006   1_556  S
O700        C710   1.277       .  A
O701       Cu707   2.015   1_556  S
O701        C711   1.278       .  A
O702       Cu707   2.010       .  S
O702        C712   1.278       .  A
O703       Cu708   2.011       .  S
O703        C712   1.277       .  A
O704       Cu708   2.011   1_556  S
O704        C711   1.278       .  A
O705       Cu708   2.010   1_556  S
O705        C710   1.278       .  A
O706       Cu708   2.011       .  S
O706        C709   1.278       .  A
Cu707      Cu708   2.376       .  S
O713       Cu721   2.022   1_545  S
O713        C723   1.279       .  A
O714       Cu721   2.022       .  S
O714        C724   1.279       .  A
O715       Cu721   2.016       .  S
O715        C725   1.278       .  A
O716       Cu721   2.016   1_545  S
O716        C726   1.278       .  A
O717       Cu722   2.005   1_545  S
O717        C726   1.277       .  A
O718       Cu722   2.006       .  S
O718        C725   1.277       .  A
O719       Cu722   2.012       .  S
O719        C724   1.278       .  A
O720       Cu722   2.015   1_545  S
O720        C723   1.278       .  A
Cu721      Cu722   2.375       .  S
O727       Cu735   2.004       .  S
O727        C737   1.277       .  A
O728       Cu735   2.011       .  S
O728        C738   1.278   1_655  A
O729       Cu735   2.013       .  S
O729        C739   1.278   1_655  A
O730       Cu735   2.016       .  S
O730        C740   1.277       .  A
O731       Cu736   2.025       .  S
O731        C740   1.280       .  A
O732       Cu736   2.022       .  S
O732        C739   1.279   1_655  A
O733       Cu736   2.011       .  S
O733        C738   1.278   1_655  A
O734       Cu736   2.008       .  S
O734        C737   1.277       .  A
Cu735      Cu736   2.375       .  S
C741        C742   1.411       .  A
C741        C746   1.401       .  A
C741        F748   1.357       .  S
C742        C743   1.410       .  A
C743        C744   1.400       .  A
C743        F750   1.357       .  S
C744        C745   1.405       .  A
C744        F749   1.358       .  S
C745        C746   1.407       .  A
C746        F747   1.358       .  S
C751        C752   1.404       .  A
C751        C756   1.401       .  A
C751        F758   1.358       .  S
C752        C753   1.405       .  A
C753        C754   1.398       .  A
C753        F760   1.358       .  S
C754        C755   1.410       .  A
C754        F759   1.357       .  S
C755        C756   1.411       .  A
C756        F757   1.357       .  S
C761        C762   1.404       .  A
C761        C766   1.400       .  A
C761        F768   1.358       .  S
C762        C763   1.403       .  A
C763        C764   1.399       .  A
C763        F770   1.358       .  S
C764        C765   1.408       .  A
C764        F769   1.357       .  S
C765        C766   1.409       .  A
C766        F767   1.357       .  S
C771        C772   1.408       .  A
C771        C776   1.399       .  A
C771        F778   1.357       .  S
C772        C773   1.407       .  A
C773        C774   1.397       .  A
C773        F780   1.358       .  S
C774        C775   1.404       .  A
C774        F779   1.358       .  S
C775        C776   1.404       .  A
C776        F777   1.357       .  S
C781        C782   1.403       .  A
C781        C786   1.397       .  A
C781        F788   1.358       .  S
C782        C783   1.401       .  A
C783        C784   1.396       .  A
C783        F790   1.357       .  S
C784        C785   1.406       .  A
C784        F789   1.357       .  S
C785        C786   1.408       .  A
C786        F787   1.358       .  S
C791        C792   1.407       .  A
C791        C796   1.394       .  A
C791        F798   1.357       .  S
C792        C793   1.409       .  A
C793        C794   1.398       .  A
C793        F800   1.357       .  S
C794        C795   1.403       .  A
C794        F799   1.357       .  S
C795        C796   1.400       .  A
C796        F797   1.355       .  S
C801        C802   1.410       .  A
C801        C806   1.399       .  A
C801        F808   1.357       .  S
C802        C803   1.411       .  A
C803        C804   1.399       .  A
C803        F810   1.357       .  S
C804        C805   1.402       .  A
C804        F809   1.357       .  S
C805        C806   1.402       .  A
C806        F807   1.356       .  S
C811        C812   1.410       .  A
C811        C816   1.399       .  A
C811        F818   1.357       .  S
C812        C813   1.408       .  A
C813        C814   1.399       .  A
C813        F820   1.357       .  S
C814        C815   1.402       .  A
C814        F819   1.356       .  S
C815        C816   1.403       .  A
C816        F817   1.357       .  S
C821        C822   1.407       .  A
C821        C826   1.396       .  A
C821        F828   1.358       .  S
C822        C823   1.409       .  A
C823        C824   1.398       .  A
C823        F830   1.357       .  S
C824        C825   1.402       .  A
C824        F829   1.358       .  S
C825        C826   1.402       .  A
C826        F827   1.357       .  S
C831        C832   1.401       .  A
C831        C836   1.396       .  A
C831        F838   1.358       .  S
C832        C833   1.403       .  A
C833        C834   1.397       .  A
C833        F840   1.357       .  S
C834        C835   1.406       .  A
C834        F839   1.358       .  S
C835        C836   1.408       .  A
C836        F837   1.357       .  S
C841        C842   1.406       .  A
C841        C846   1.398       .  A
C841        F848   1.358       .  S
C842        C843   1.407       .  A
C843        C844   1.400       .  A
C843        F850   1.357       .  S
C844        C845   1.405       .  A
C844        F849   1.357       .  S
C845        C846   1.403       .  A
C846        F847   1.357       .  S
C851        C852   1.402       .  A
C851        C856   1.395       .  A
C851        F858   1.358       .  S
C852        C853   1.402       .  A
C853        C854   1.396       .  A
C853        F860   1.357       .  S
C854        C855   1.407       .  A
C854        F859   1.358       .  S
C855        C856   1.408       .  A
C856        F857   1.357       .  S
C861        C862   1.407       .  A
C861        C866   1.399       .  A
C861        F868   1.357       .  S
C862        C863   1.409       .  A
C863        C864   1.400       .  A
C863        F870   1.357       .  S
C864        C865   1.404       .  A
C864        F869   1.358       .  S
C865        C866   1.404       .  A
C866        F867   1.357       .  S
C871        C872   1.404       .  A
C871        C876   1.400       .  A
C871        F878   1.357       .  S
C872        C873   1.403       .  A
C873        C874   1.399       .  A
C873        F880   1.357       .  S
C874        C875   1.410       .  A
C874        F879   1.357       .  S
C875        C876   1.409       .  A
C876        F877   1.358       .  S
C881        C882   1.402       .  A
C881        C886   1.399       .  A
C881        F888   1.358       .  S
C882        C883   1.402       .  A
C883        C884   1.399       .  A
C883        F890   1.358       .  S
C884        C885   1.410       .  A
C884        F889   1.357       .  S
C885        C886   1.409       .  A
C886        F887   1.357       .  S
C891        C892   1.409       .  A
C891        C896   1.401       .  A
C891        F898   1.357       .  S
C892        C893   1.407       .  A
C893        C894   1.396       .  A
C893        F900   1.358       .  S
C894        C895   1.403       .  A
C894        F899   1.357       .  S
C895        C896   1.404       .  A
C896        F897   1.357       .  S
C901        C902   1.409       .  A
C901        C906   1.399       .  A
C901        F908   1.357       .  S
C902        C903   1.410       .  A
C903        C904   1.399       .  A
C903        F910   1.357       .  S
C904        C905   1.405       .  A
C904        F909   1.354       .  S
C905        C906   1.408       .  A
C906        F907   1.358       .  S
C911        C912   1.401       .  A
C911        C916   1.397       .  A
C911        F918   1.356       .  S
C912        C913   1.402       .  A
C913        C914   1.401       .  A
C913        F920   1.357       .  S
C914        C915   1.411       .  A
C914        F919   1.357       .  S
C915        C916   1.410       .  A
C916        F917   1.357       .  S
C921        C922   1.405       .  A
C921        C926   1.400       .  A
C921        F928   1.358       .  S
C922        C923   1.406       .  A
C923        C924   1.398       .  A
C923        F930   1.357       .  S
C924        C925   1.412       .  A
C924        F929   1.357       .  S
C925        C926   1.411       .  A
C926        F927   1.353       .  S
C931        C932   1.409       .  A
C931        C936   1.401       .  A
C931        F938   1.357       .  S
C932        C933   1.409       .  A
C933        C934   1.395       .  A
C933        F940   1.357       .  S
C934        C935   1.405       .  A
C934        F939   1.357       .  S
C935        C936   1.406       .  A
C936        F937   1.358       .  S
C941        C942   1.406       .  A
C941        C946   1.398       .  A
C941        F948   1.358       .  S
C942        C943   1.408       .  A
C943        C944   1.401       .  A
C943        F950   1.358       .  S
C944        C945   1.405       .  A
C944        F949   1.357       .  S
C945        C946   1.403       .  A
C946        F947   1.354       .  S
C951        C952   1.409       .  A
C951        C956   1.395       .  A
C951        F958   1.357       .  S
C952        C953   1.411       .  A
C953        C954   1.400       .  A
C953        F960   1.357       .  S
C954        C955   1.403       .  A
C954        F959   1.357       .  S
C955        C956   1.400       .  A
C956        F957   1.356       .  S
C961        C962   1.407       .  A
C961        C966   1.398       .  A
C961        F968   1.357       .  S
C962        C963   1.408       .  A
C963        C964   1.400       .  A
C963        F970   1.358       .  S
C964        C965   1.405       .  A
C964        F969   1.358       .  S
C965        C966   1.403       .  A
C966        F967   1.357       .  S
C971        C972   1.407       .  A
C971        C976   1.396       .  A
C971        F978   1.358       .  S
C972        C973   1.404       .  A
C973        C974   1.402       .  A
C973        F980   1.358       .  S
C974        C975   1.412       .  A
C974        F979   1.357       .  S
C975        C976   1.408       .  A
C976        F977   1.357       .  S
C981        C982   1.403       .  A
C981        C986   1.398       .  A
C981        F988   1.356       .  S
C982        C983   1.406       .  A
C983        C984   1.397       .  A
C983        F990   1.356       .  S
C984        C985   1.406       .  A
C984        F989   1.358       .  S
C985        C986   1.406       .  A
C986        F987   1.357       .  S
C991        C992   1.403       .  A
C991        C996   1.397       .  A
C991        F998   1.356       .  S
C992        C993   1.403       .  A
C993        C994   1.399       .  A
C993       F1000   1.356       .  S
C994        C995   1.407       .  A
C994        F999   1.358       .  S
C995        C996   1.408       .  A
C996        F997   1.357       .  S
C1001      C1002   1.409       .  A
C1001      C1006   1.399       .  A
C1001      F1008   1.357       .  S
C1002      C1003   1.408       .  A
C1003      C1004   1.397       .  A
C1003      F1010   1.357       .  S
C1004      C1005   1.406       .  A
C1004      F1009   1.354       .  S
C1005      C1006   1.408       .  A
C1006      F1007   1.358       .  S
C1011      C1012   1.404       .  A
C1011      C1016   1.397       .  A
C1011      F1018   1.357       .  S
C1012      C1013   1.406       .  A
C1013      C1014   1.399       .  A
C1013      F1020   1.357       .  S
C1014      C1015   1.406       .  A
C1014      F1019   1.358       .  S
C1015      C1016   1.405       .  A
C1016      F1017   1.358       .  S
C1021      C1022   1.403       .  A
C1021      C1026   1.398       .  A
C1021      F1028   1.358       .  S
C1022      C1023   1.403       .  A
C1023      C1024   1.396       .  A
C1023      F1030   1.358       .  S
C1024      C1025   1.406       .  A
C1024      F1029   1.358       .  S
C1025      C1026   1.407       .  A
C1026      F1027   1.357       .  S
C1031      C1032   1.402       .  A
C1031      C1036   1.397       .  A
C1031      F1038   1.357       .  S
C1032      C1033   1.404       .  A
C1033      C1034   1.400       .  A
C1033      F1040   1.358       .  S
C1034      C1035   1.409       .  A
C1034      F1039   1.358       .  S
C1035      C1036   1.406       .  A
C1036      F1037   1.357       .  S
C1041      C1042   1.404       .  A
C1041      C1046   1.398       .  A
C1041      F1048   1.357       .  S
C1042      C1043   1.403       .  A
C1043      C1044   1.398       .  A
C1043      F1050   1.358       .  S
C1044      C1045   1.408       .  A
C1044      F1049   1.358       .  S
C1045      C1046   1.408       .  A
C1046      F1047   1.357       .  S
C1051      C1052   1.406       .  A
C1051      C1056   1.397       .  A
C1051      F1058   1.358       .  S
C1052      C1053   1.408       .  A
C1053      C1054   1.399       .  A
C1053      F1060   1.357       .  S
C1054      C1055   1.410       .  A
C1054      F1059   1.358       .  S
C1055      C1056   1.408       .  A
C1056      F1057   1.353       .  S
C1061      C1062   1.410       .  A
C1061      C1066   1.399       .  A
C1061      F1068   1.357       .  S
C1062      C1063   1.408       .  A
C1063      C1064   1.396       .  A
C1063      F1070   1.357       .  S
C1064      C1065   1.402       .  A
C1064      F1069   1.356       .  S
C1065      C1066   1.403       .  A
C1066      F1067   1.358       .  S
C1071      C1072   1.409       .  A
C1071      C1076   1.398       .  A
C1071      F1078   1.357       .  S
C1072      C1073   1.409       .  A
C1073      C1074   1.399       .  A
C1073      F1080   1.357       .  S
C1074      C1075   1.404       .  A
C1074      F1079   1.358       .  S
C1075      C1076   1.402       .  A
C1076      F1077   1.358       .  S
C1081      C1082   1.404       .  A
C1081      C1086   1.397       .  A
C1081      F1088   1.357       .  S
C1082      C1083   1.404       .  A
C1083      C1084   1.401       .  A
C1083      F1090   1.358       .  S
C1084      C1085   1.409       .  A
C1084      F1089   1.357       .  S
C1085      C1086   1.406       .  A
C1086      F1087   1.358       .  S
C1091      C1092   1.409       .  A
C1091      C1096   1.399       .  A
C1091      F1098   1.358       .  S
C1092      C1093   1.406       .  A
C1093      C1094   1.395       .  A
C1093      F1100   1.353       .  S
C1094      C1095   1.406       .  A
C1094      F1099   1.357       .  S
C1095      C1096   1.408       .  A
C1096      F1097   1.357       .  S
C1101      C1102   1.403       .  A
C1101      C1106   1.397       .  A
C1101      F1108   1.357       .  S
C1102      C1103   1.402       .  A
C1103      C1104   1.398       .  A
C1103      F1110   1.358       .  S
C1104      C1105   1.408       .  A
C1104      F1109   1.357       .  S
C1105      C1106   1.408       .  A
C1106      F1107   1.357       .  S
C1111      C1112   1.408       .  A
C1111      C1116   1.398       .  A
C1111      F1118   1.357       .  S
C1112      C1113   1.407       .  A
C1113      C1114   1.396       .  A
C1113      F1120   1.358       .  S
C1114      C1115   1.401       .  A
C1114      F1119   1.357       .  S
C1115      C1116   1.402       .  A
C1116      F1117   1.358       .  S
C1121      C1122   1.408       .  A
C1121      C1126   1.400       .  A
C1121      F1128   1.358       .  S
C1122      C1123   1.406       .  A
C1123      C1124   1.397       .  A
C1123      F1130   1.358       .  S
C1124      C1125   1.403       .  A
C1124      F1129   1.357       .  S
C1125      C1126   1.404       .  A
C1126      F1127   1.358       .  S
C1131      C1132   1.410       .  A
C1131      C1136   1.397       .  A
C1131      F1138   1.357       .  S
C1132      C1133   1.411       .  A
C1133      C1134   1.399       .  A
C1133      F1140   1.357       .  S
C1134      C1135   1.403       .  A
C1134      F1139   1.358       .  S
C1135      C1136   1.407       .  A
C1136      F1137   1.358       .  S
C1141      C1142   1.407       .  A
C1141      C1146   1.396       .  A
C1141      F1148   1.358       .  S
C1142      C1143   1.409       .  A
C1143      C1144   1.400       .  A
C1143      F1150   1.357       .  S
C1144      C1145   1.403       .  A
C1144      F1149   1.357       .  S
C1145      C1146   1.401       .  A
C1146      F1147   1.355       .  S
C1151      C1152   1.403       .  A
C1151      C1156   1.398       .  A
C1151      F1158   1.358       .  S
C1152      C1153   1.406       .  A
C1153      C1154   1.397       .  A
C1153      F1160   1.358       .  S
C1154      C1155   1.410       .  A
C1154      F1159   1.357       .  S
C1155      C1156   1.410       .  A
C1156      F1157   1.357       .  S
C1161      C1162   1.409       .  A
C1161      C1166   1.400       .  A
C1161      F1168   1.357       .  S
C1162      C1163   1.408       .  A
C1163      C1164   1.398       .  A
C1163      F1170   1.357       .  S
C1164      C1165   1.402       .  A
C1164      F1169   1.356       .  S
C1165      C1166   1.403       .  A
C1166      F1167   1.357       .  S
C1171      C1172   1.407       .  A
C1171      C1176   1.396       .  A
C1171      F1178   1.357       .  S
C1172      C1173   1.407       .  A
C1173      C1174   1.398       .  A
C1173      F1180   1.357       .  S
C1174      C1175   1.408       .  A
C1174      F1179   1.354       .  S
C1175      C1176   1.409       .  A
C1176      F1177   1.357       .  S
C1181      C1182   1.408       .  A
C1181      C1186   1.398       .  A
C1181      F1188   1.358       .  S
C1182      C1183   1.406       .  A
C1183      C1184   1.398       .  A
C1183      F1190   1.358       .  S
C1184      C1185   1.403       .  A
C1184      F1189   1.357       .  S
C1185      C1186   1.404       .  A
C1186      F1187   1.357       .  S
C1191      C1192   1.403       .  A
C1191      C1196   1.396       .  A
C1191      F1198   1.357       .  S
C1192      C1193   1.404       .  A
C1193      C1194   1.397       .  A
C1193      F1200   1.357       .  S
C1194      C1195   1.408       .  A
C1194      F1199   1.357       .  S
C1195      C1196   1.406       .  A
C1196      F1197   1.358       .  S
C1201      C1202   1.404       .  A
C1201      C1206   1.399       .  A
C1201      F1208   1.356       .  S
C1202      C1203   1.404       .  A
C1203      C1204   1.399       .  A
C1203      F1210   1.358       .  S
C1204      C1205   1.410       .  A
C1204      F1209   1.357       .  S
C1205      C1206   1.407       .  A
C1206      F1207   1.357       .  S
C1211      C1212   1.402       .  A
C1211      C1216   1.400       .  A
C1211      F1218   1.358       .  S
C1212      C1213   1.401       .  A
C1213      C1214   1.396       .  A
C1213      F1220   1.356       .  S
C1214      C1215   1.409       .  A
C1214      F1219   1.357       .  S
C1215      C1216   1.412       .  A
C1216      F1217   1.357       .  S
