geometry optimzed in LAMMPS
_audit_creation_date              2020-12-01 
_audit_creation_method            'lammps2cif' 
_symmetry_space_group_name_H-M    'P1' 
_symmetry_Int_Tables_number       1 
_symmetry_cell_setting            triclinic 
loop_ 
_symmetry_equiv_pos_as_xyz 
  x,y,z 
_cell_length_a                    51.03870508 
_cell_length_b                    51.12497694327181 
_cell_length_c                    51.01291589928727 
_cell_angle_alpha                 89.8570590833862 
_cell_angle_beta                  89.8802705513974 
_cell_angle_gamma                 90.2376164666318 
loop_ 
_atom_site_label 
_atom_site_type_symbol 
_atom_site_fract_x 
_atom_site_fract_y 
_atom_site_fract_z 
_atom_site_charge 
C1          C  0.12559869  0.84498229  0.47655763     0.01600
C2          C  0.11365679  0.83551146  0.49980635     0.01600
C3          C  0.12058239  0.84700745  0.52406905     0.01600
C4          C  0.13631655  0.86987293  0.52464042     0.01600
C5          C  0.14537557  0.88109857  0.50110690     0.01600
C6          C  0.14195257  0.86745060  0.47743071     0.01600
C7          C  0.14038755  0.13223715  0.52742203     0.01600
C8          C  0.14947278  0.11886089  0.50495411     0.01600
C9          C  0.14355656  0.12870440  0.47973438     0.01600
C10         C  0.12582634  0.14990650  0.47719466     0.01600
C11         C  0.11422500  0.16142480  0.49961044     0.01600
C12         C  0.12243225  0.15322563  0.52481575     0.01600
C13         C  0.89102688  0.14030523  0.52183740     0.01600
C14         C  0.90127675  0.15270427  0.49918768     0.01600
C15         C  0.89316361  0.14398290  0.47423228     0.01600
C16         C  0.87646922  0.12190743  0.47194291     0.01600
C17         C  0.86854182  0.10790076  0.49450221     0.01600
C18         C  0.87452794  0.11796619  0.51953296     0.01600
C19         C  0.88369110  0.83977369  0.52456558     0.01600
C20         C  0.89552051  0.82973055  0.50162775     0.01600
C21         C  0.88784964  0.83965485  0.47695326     0.01600
C22         C  0.87183486  0.86221430  0.47558026     0.01600
C23         C  0.86189565  0.87356661  0.49877613     0.01600
C24         C  0.86615240  0.86113907  0.52307960     0.01600
C25         C  0.48240743  0.13991422  0.11388728     0.01600
C26         C  0.50826540  0.14569485  0.10589342     0.01600
C27         C  0.52925616  0.13319525  0.11879822     0.01600
C28         C  0.52451958  0.11226733  0.13646087     0.01600
C29         C  0.49868327  0.10454057  0.14215519     0.01600
C30         C  0.47775543  0.11959868  0.13232646     0.01600
C31         C  0.53362412  0.12516119  0.86289499     0.01600
C32         C  0.53047536  0.14548518  0.88157425     0.01600
C33         C  0.50527267  0.15149168  0.89120360     0.01600
C34         C  0.48313895  0.13961222  0.87969778     0.01600
C35         C  0.48613526  0.12075970  0.85970852     0.01600
C36         C  0.51138040  0.11232396  0.85232542     0.01600
C37         C  0.53069115  0.85200988  0.11845635     0.01600
C38         C  0.52783896  0.87096632  0.13842505     0.01600
C39         C  0.50260770  0.88030954  0.14478114     0.01600
C40         C  0.48028084  0.86796692  0.13379523     0.01600
C41         C  0.48332662  0.84847163  0.11425872     0.01600
C42         C  0.50861795  0.84203273  0.10517763     0.01600
C43         C  0.48445221  0.88046328  0.85400579     0.01600
C44         C  0.51029074  0.88804043  0.84756989     0.01600
C45         C  0.53144939  0.87339163  0.85765468     0.01600
C46         C  0.52707295  0.85371258  0.87673400     0.01600
C47         C  0.50146013  0.84854147  0.88570869     0.01600
C48         C  0.48008449  0.86122931  0.87365658     0.01600
C49         C  0.14256039  0.51462898  0.87899506     0.01600
C50         C  0.12452357  0.51708486  0.85790753     0.01600
C51         C  0.11328703  0.49450912  0.84634231     0.01600
C52         C  0.12200798  0.46959210  0.85457393     0.01600
C53         C  0.13972064  0.46731412  0.87577017     0.01600
C54         C  0.14889508  0.48970385  0.88893518     0.01600
C55         C  0.14319342  0.51660640  0.12511408     0.01600
C56         C  0.15169671  0.49189564  0.11625593     0.01600
C57         C  0.14271195  0.46904033  0.12919838     0.01600
C58         C  0.12317938  0.47061541  0.14898209     0.01600
C59         C  0.11235942  0.49515253  0.15547215     0.01600
C60         C  0.12328767  0.51816131  0.14446189     0.01600
C61         C  0.85828864  0.51344259  0.11350379     0.01600
C62         C  0.87752118  0.51819105  0.13295706     0.01600
C63         C  0.89024303  0.49705906  0.14541237     0.01600
C64         C  0.88136953  0.47130250  0.14088570     0.01600
C65         C  0.86186819  0.46656965  0.12165932     0.01600
C66         C  0.85145620  0.48747012  0.10680179     0.01600
C67         C  0.87150916  0.51979746  0.87568263     0.01600
C68         C  0.88806539  0.51691157  0.85357468     0.01600
C69         C  0.89580426  0.49166425  0.84533923     0.01600
C70         C  0.88416297  0.46941204  0.85735401     0.01600
C71         C  0.86593226  0.47238646  0.87825763     0.01600
C72         C  0.86078917  0.49760467  0.88845559     0.01600
N73         N  0.11559116  0.96241557  0.85280890    -0.06800
N74         N  0.09086905  0.95438810  0.85521016    -0.58900
N75         N  0.17203609  0.94426207  0.87960827    -0.06500
N76         N  0.17930074  0.92416177  0.89395412    -0.61100
N77         N  0.15876329  0.96110082  0.89396837    -0.06100
N78         N  0.15650633  0.95225743  0.91837926    -0.58900
N79         N  0.12894829  0.94569213  0.83842056    -0.05800
N80         N  0.11367394  0.92659897  0.83043182    -0.61400
C81         C  0.09000454  0.93216718  0.84067452     0.95400
C82         C  0.16981686  0.92933893  0.91806666     0.95100
N83         N  0.22732031  0.96423762  0.82193488    -0.07000
N84         N  0.25287564  0.96176984  0.82345653    -0.59500
N85         N  0.17122729  0.94681080  0.79301338    -0.05100
N86         N  0.15980343  0.93121547  0.77572974    -0.60800
N87         N  0.18366067  0.96584482  0.78087090    -0.07000
N88         N  0.18082886  0.96399074  0.75534372    -0.59800
N89         N  0.21537244  0.94527848  0.83468792    -0.04800
N90         N  0.23282009  0.92907202  0.84494191    -0.60800
Mn91       Mn  0.17196703  0.94483653  0.83641291     1.18400
C92         C  0.25611678  0.93987239  0.83778296     0.97500
C93         C  0.16590677  0.94242168  0.75232996     0.98100
N94         N  0.15977373  0.02463895  0.89521345    -0.07000
N95         N  0.15749681  0.03284966  0.91980410    -0.63300
N96         N  0.13074203  0.04329566  0.84039623    -0.05800
N97         N  0.11603550  0.06280993  0.83258742    -0.64000
N98         N  0.11674283  0.02614574  0.85384780    -0.06500
N99         N  0.09210096  0.03426887  0.85578114    -0.63600
N100        N  0.17390758  0.04147805  0.88149604    -0.05400
N101        N  0.18188074  0.06078001  0.89642642    -0.64300
Mn102      Mn  0.13706336  0.99359512  0.87461820     1.10700
C103        C  0.17182618  0.05527624  0.92022105     0.98700
C104        C  0.09204060  0.05704776  0.84198385     0.98800
N105        N  0.18502290  0.02607583  0.78190210    -0.06600
N106        N  0.18317782  0.03011769  0.75649914    -0.61900
N107        N  0.21729658  0.04244170  0.83700461    -0.05900
N108        N  0.23529326  0.05825431  0.84716329    -0.58700
N109        N  0.22860935  0.02437314  0.82275216    -0.07200
N110        N  0.25418863  0.02738503  0.82259302    -0.61500
N111        N  0.17252861  0.04420254  0.79503977    -0.06200
N112        N  0.16155198  0.06104327  0.77861357    -0.58700
Mn113      Mn  0.20641390  0.99506401  0.80154316     1.20200
Mn114      Mn  0.17367142  0.04344600  0.83858267     1.10100
Cl115      Cl  0.17219075  0.99422093  0.83793560    -0.86700
C116        C  0.16845138  0.05188466  0.75459480     0.95700
C117        C  0.25824392  0.04845099  0.83788857     0.95500
N118        N  0.03995503  0.10113206  0.85341922    -0.06800
N119        N  0.04860241  0.07671824  0.85542331    -0.58900
N120        N  0.05408255  0.15763378  0.88229516    -0.06500
N121        N  0.07235431  0.16705919  0.89765228    -0.61100
N122        N  0.03736973  0.14315243  0.89579268    -0.06100
N123        N  0.04480010  0.14193050  0.92073605    -0.58900
N124        N  0.05690279  0.11552796  0.84008878    -0.05800
N125        N  0.07687248  0.10126284  0.83253066    -0.61400
C126        C  0.07152090  0.07715323  0.84186451     0.95400
C127        C  0.06651986  0.15740068  0.92150615     0.95100
N128        N  0.03575940  0.21369045  0.82738517    -0.07000
N129        N  0.03724788  0.23914728  0.83055223    -0.59500
N130        N  0.05681435  0.15976968  0.79579620    -0.05100
N131        N  0.07309803  0.14975663  0.77815188    -0.60800
N132        N  0.03792220  0.17247922  0.78395068    -0.07000
N133        N  0.04040180  0.17114371  0.75839568    -0.59800
N134        N  0.05479162  0.20177868  0.83978147    -0.04800
N135        N  0.07008608  0.21912431  0.85155318    -0.60800
Mn136      Mn  0.05642188  0.15856660  0.83941812     1.18400
C137        C  0.05865891  0.24229437  0.84559220     0.97500
C138        C  0.06225797  0.15699157  0.75488710     0.98100
N139        N  0.97379491  0.14119535  0.89376503    -0.07000
N140        N  0.96532250  0.14027193  0.91840395    -0.63300
N141        N  0.96015888  0.11319154  0.83629683    -0.05800
N142        N  0.94181745  0.09816615  0.82647056    -0.64000
N143        N  0.97642172  0.09945286  0.85085920    -0.06500
N144        N  0.96865485  0.07460810  0.85163257    -0.63600
N145        N  0.95710624  0.15441592  0.87923749    -0.05400
N146        N  0.93761553  0.16312806  0.89347886    -0.64300
Mn147      Mn  0.00684896  0.12037744  0.87431827     1.10700
C148        C  0.94287831  0.15449923  0.91778159     0.98700
C149        C  0.94719953  0.07422948  0.83586190     0.98800
N150        N  0.97819002  0.17129756  0.78221890    -0.06600
N151        N  0.97524234  0.17214749  0.75669898    -0.61900
N152        N  0.95681151  0.19900457  0.83732132    -0.05900
N153        N  0.93909455  0.21540320  0.84678352    -0.58700
N154        N  0.97553935  0.21200425  0.82534802    -0.07200
N155        N  0.97115704  0.23725788  0.82611370    -0.61500
N156        N  0.95963575  0.15730003  0.79328145    -0.06200
N157        N  0.94340453  0.14813631  0.77521271    -0.58700
Mn158      Mn  0.00696989  0.19264972  0.80457025     1.20200
Mn159      Mn  0.95782206  0.15578113  0.83656859     1.10100
Cl160      Cl  0.00704755  0.15666877  0.83880094    -0.86700
C161        C  0.95360575  0.15764491  0.75246267     0.95700
C162        C  0.94849997  0.23926255  0.83954779     0.95500
N163        N  0.03542281  0.88626290  0.15115423    -0.06800
N164        N  0.04356563  0.91090996  0.15000793    -0.58900
N165        N  0.05162284  0.82970480  0.12327653    -0.06500
N166        N  0.07134264  0.82132453  0.10900902    -0.61100
N167        N  0.03557073  0.84394374  0.10895924    -0.06100
N168        N  0.04463467  0.84572709  0.08456446    -0.58900
N169        N  0.05182339  0.87212628  0.16520003    -0.05800
N170        N  0.07096405  0.88683773  0.17413008    -0.61400
C171        C  0.06557392  0.91092356  0.16483419     0.95400
C172        C  0.06681377  0.83110858  0.08492089     0.95100
N173        N  0.02859683  0.77480148  0.17999786    -0.07000
N174        N  0.02978146  0.74923006  0.17830790    -0.59500
N175        N  0.05000149  0.82859092  0.20959141    -0.05100
N176        N  0.06837258  0.83529924  0.22664750    -0.60800
N177        N  0.03048496  0.81691583  0.22172508    -0.07000
N178        N  0.03492453  0.81543638  0.24702749    -0.59800
N179        N  0.04788806  0.78591773  0.16698541    -0.04800
N180        N  0.06283353  0.76784896  0.15606157    -0.60800
Mn181      Mn  0.05100307  0.82908510  0.16627190     1.18400
C182        C  0.05111514  0.74506201  0.16335278     0.97500
C183        C  0.05848460  0.82701405  0.24997575     0.98100
N184        N  0.97215821  0.84539316  0.10785887    -0.07000
N185        N  0.96554777  0.84576967  0.08267903    -0.63300
N186        N  0.95486120  0.87512901  0.16350873    -0.05800
N187        N  0.93633270  0.89055325  0.17215878    -0.64000
N188        N  0.97213818  0.88845096  0.14956311    -0.06500
N189        N  0.96493314  0.91340814  0.14799630    -0.63600
N190        N  0.95448081  0.83236300  0.12160809    -0.05400
N191        N  0.93610201  0.82320532  0.10616093    -0.64300
Mn192      Mn  0.00383017  0.86679299  0.12857733     1.10700
C193        C  0.94313488  0.83141471  0.08201458     0.98700
C194        C  0.94266664  0.91432123  0.16266758     0.98800
N195        N  0.97015707  0.82000575  0.22111869    -0.06600
N196        N  0.96757764  0.82291276  0.24658626    -0.61900
N197        N  0.95113421  0.78926043  0.16567340    -0.05900
N198        N  0.93468759  0.77258245  0.15448916    -0.58700
N199        N  0.96838989  0.77662304  0.17981101    -0.07200
N200        N  0.96410663  0.75123523  0.17890913    -0.61500
N201        N  0.95200773  0.83293607  0.20838926    -0.06200
N202        N  0.93625813  0.84489009  0.22521597    -0.58700
Mn203      Mn  0.99934777  0.79693200  0.20096130     1.20200
Mn204      Mn  0.95242879  0.83243949  0.16473463     1.10100
Cl205      Cl  0.00171615  0.83158614  0.16489724    -0.86700
C206        C  0.94648631  0.83844404  0.24892095     0.95700
C207        C  0.94310644  0.74890735  0.16304538     0.95500
N208        N  0.22508833  0.81623712  0.03102053    -0.06800
N209        N  0.25068667  0.81722961  0.03334696    -0.58900
N210        N  0.17041565  0.78651254  0.05214148    -0.06500
N211        N  0.15999346  0.76979346  0.06913990    -0.61100
N212        N  0.18253484  0.77386692  0.03335615    -0.06100
N213        N  0.18038073  0.74843925  0.03674482    -0.58900
N214        N  0.21355400  0.82908949  0.05003345    -0.05800
N215        N  0.23138096  0.83886416  0.06620781    -0.61400
C216        C  0.25443633  0.83140004  0.05521323     0.95400
C217        C  0.16634053  0.74611761  0.05905623     0.95100
N218        N  0.11282040  0.84351263  0.03425264    -0.07000
N219        N  0.08805980  0.84493370  0.04220101    -0.59500
N220        N  0.16910221  0.87266629  0.04992292    -0.05100
N221        N  0.17651988  0.88770447  0.06940658    -0.60800
N222        N  0.15489132  0.88605400  0.03299968    -0.07000
N223        N  0.15206217  0.91053032  0.04135104    -0.59800
N224        N  0.12683507  0.83042828  0.05157265    -0.04800
N225        N  0.11193672  0.82243705  0.07109916    -0.60800
Mn226      Mn  0.17004920  0.82971606  0.05152866     1.18400
C227        C  0.08783805  0.83130168  0.06507935     0.97500
C228        C  0.16612210  0.91124904  0.06394823     0.98100
N229        N  0.18189782  0.77220903  0.97300179    -0.07000
N230        N  0.18217917  0.74672758  0.97011958    -0.63300
N231        N  0.21117381  0.82651515  0.95177203    -0.05800
N232        N  0.22768193  0.83646680  0.93435560    -0.64000
N233        N  0.22398681  0.81470440  0.97062259    -0.06500
N234        N  0.24942581  0.81647739  0.96676359    -0.63600
N235        N  0.16885770  0.78346694  0.95396729    -0.05400
N236        N  0.16010703  0.76556060  0.93731732    -0.64300
Mn237      Mn  0.20358955  0.79407089  0.00205477     1.10700
C238        C  0.16848988  0.74267188  0.94796005     0.98700
C239        C  0.25147896  0.83011043  0.94414869     0.98800
N240        N  0.15476055  0.88421994  0.96880814    -0.06600
N241        N  0.15427888  0.90892785  0.96065843    -0.61900
N242        N  0.12536797  0.82766021  0.95392389    -0.05900
N243        N  0.11037359  0.81958063  0.93469852    -0.58700
N244        N  0.11191714  0.84223878  0.97043507    -0.07200
N245        N  0.08738617  0.84463795  0.96207444    -0.61500
N246        N  0.16772599  0.86975694  0.95180291    -0.06200
N247        N  0.17660232  0.88421188  0.93235920    -0.58700
Mn248      Mn  0.13288745  0.86477762  0.00157724     1.20200
Mn249      Mn  0.16813889  0.82678446  0.95233240     1.10100
Cl250      Cl  0.16838893  0.82912758  0.00190869    -0.86700
C251        C  0.16839922  0.90854464  0.93803796     0.95700
C252        C  0.08676632  0.82994741  0.93992850     0.95500
N253        N  0.03293526  0.17066027  0.21990004    -0.06800
N254        N  0.03602345  0.17042292  0.24542268    -0.58900
N255        N  0.05492607  0.20038169  0.16613687    -0.06500
N256        N  0.07279052  0.21710224  0.15719189    -0.61100
N257        N  0.03604189  0.21304985  0.17804380    -0.06100
N258        N  0.04016521  0.23841161  0.17723698    -0.58900
N259        N  0.05132416  0.15708778  0.20829618    -0.05800
N260        N  0.06747713  0.14704454  0.22585469    -0.61400
C261        C  0.05745487  0.15555110  0.24891128     0.95400
C262        C  0.06302284  0.24075647  0.16420401     0.95100
N263        N  0.03715224  0.14301004  0.10812187    -0.07000
N264        N  0.04568595  0.14161432  0.08354476    -0.59500
N265        N  0.05118197  0.11425733  0.16479689    -0.05100
N266        N  0.06973293  0.09909774  0.17393380    -0.60800
N267        N  0.03440974  0.10067888  0.15059990    -0.07000
N268        N  0.04204142  0.07584969  0.14935863    -0.59800
N269        N  0.05402052  0.15635825  0.12245520    -0.04800
N270        N  0.07376372  0.16456262  0.10805741    -0.60800
Mn271      Mn  0.05345229  0.15700815  0.16534095     1.18400
C272        C  0.06839918  0.15555838  0.08389043     0.97500
C273        C  0.06395268  0.07524118  0.16449204     0.98100
N274        N  0.97574514  0.21532910  0.17640709    -0.07000
N275        N  0.97296545  0.24084796  0.17685350    -0.63300
N276        N  0.95391932  0.16088722  0.20516328    -0.05800
N277        N  0.93715483  0.14994276  0.22178157    -0.64000
N278        N  0.97293701  0.17245440  0.21799372    -0.06500
N279        N  0.96997562  0.16951449  0.24340438    -0.63600
N280        N  0.95725849  0.20424517  0.16241181    -0.05400
N281        N  0.94135671  0.22234715  0.15275996    -0.64300
Mn282      Mn  0.00437536  0.19306856  0.19826385     1.10700
C283        C  0.95162958  0.24510586  0.16199752     0.98700
C284        C  0.94769831  0.15548014  0.24551991     0.98800
N285        N  0.97015071  0.10302592  0.14861532    -0.06600
N286        N  0.96081087  0.07879135  0.14667101    -0.61900
N287        N  0.95704716  0.15969818  0.11910801    -0.05900
N288        N  0.93792146  0.16752793  0.10391076    -0.58700
N289        N  0.97344406  0.14469747  0.10597915    -0.07200
N290        N  0.96506586  0.14173020  0.08150391    -0.61500
N291        N  0.95319124  0.11779794  0.16129778    -0.06200
N292        N  0.93259286  0.10397820  0.16849026    -0.58700
Mn293      Mn  0.00384340  0.12199423  0.12759023     1.20200
Mn294      Mn  0.95479234  0.16081171  0.16189853     1.10100
Cl295      Cl  0.00410777  0.15798988  0.16288438    -0.86700
C296        C  0.93748059  0.07972788  0.15956514     0.95700
C297        C  0.94305470  0.15654801  0.08054964     0.95500
N298        N  0.18099155  0.96340300  0.22190581    -0.06800
N299        N  0.18112030  0.95919807  0.24729636    -0.58900
N300        N  0.21062331  0.94579113  0.16660756    -0.06500
N301        N  0.22770455  0.92901877  0.15675536    -0.61100
N302        N  0.22287179  0.96423831  0.17965729    -0.06100
N303        N  0.24834949  0.96047904  0.17920718    -0.58900
N304        N  0.16772882  0.94514587  0.20964158    -0.05800
N305        N  0.15818343  0.92798996  0.22668576    -0.61400
C306        C  0.16678377  0.93720873  0.25005646     0.95400
C307        C  0.25119687  0.93855534  0.16481255     0.95100
N308        N  0.15266824  0.96214110  0.10932931    -0.07000
N309        N  0.15094589  0.95386068  0.08466429    -0.59500
N310        N  0.12446952  0.94520985  0.16587228    -0.05100
N311        N  0.10971796  0.92593635  0.17449505    -0.60800
N312        N  0.11050822  0.96185789  0.15197986    -0.07000
N313        N  0.08584377  0.95364658  0.15056857    -0.59800
N314        N  0.16644492  0.94539078  0.12330890    -0.04800
N315        N  0.17467375  0.92605591  0.10856833    -0.60800
Mn316      Mn  0.16729293  0.94486031  0.16634445     1.18400
C317        C  0.16524731  0.93146334  0.08454102     0.97500
C318        C  0.08573595  0.93136756  0.16512162     0.98100
N319        N  0.22194691  0.02507281  0.18045149    -0.07000
N320        N  0.24734874  0.02921319  0.17960060    -0.63300
N321        N  0.16689933  0.04227912  0.21120620    -0.05800
N322        N  0.15779598  0.05902558  0.22883129    -0.64000
N323        N  0.18000602  0.02359293  0.22295661    -0.06500
N324        N  0.17992240  0.02685625  0.24851804    -0.63600
N325        N  0.20931429  0.04345001  0.16776166    -0.05400
N326        N  0.22603142  0.06057739  0.15766572    -0.64300
Mn327      Mn  0.20170851  0.99409661  0.20137668     1.10700
C328        C  0.24967054  0.05131048  0.16531070     0.98700
C329        C  0.16596485  0.04889606  0.25210118     0.98800
N330        N  0.10974098  0.02504801  0.15216141    -0.06600
N331        N  0.08500047  0.03284689  0.15018792    -0.61900
N332        N  0.16576613  0.04316090  0.12436988    -0.05900
N333        N  0.17487656  0.06224680  0.10961257    -0.58700
N334        N  0.15265104  0.02610362  0.11006231    -0.07200
N335        N  0.15223714  0.03388999  0.08517767    -0.61500
N336        N  0.12317368  0.04168926  0.16665084    -0.06200
N337        N  0.10792369  0.06049071  0.17511151    -0.58700
Mn338      Mn  0.13067582  0.99382459  0.13001867     1.20200
Mn339      Mn  0.16615325  0.04328129  0.16754176     1.10100
Cl340      Cl  0.16625974  0.99405059  0.16599912    -0.86700
C341        C  0.08419726  0.05484772  0.16503026     0.95700
C342        C  0.16661008  0.05633455  0.08527569     0.95500
N343        N  0.15631219  0.10080088  0.03316747    -0.06800
N344        N  0.15398625  0.07633718  0.04176582    -0.58900
N345        N  0.12784216  0.15662318  0.05018524    -0.06500
N346        N  0.11295372  0.16506415  0.06937971    -0.61100
N347        N  0.11391872  0.14273144  0.03345638    -0.06100
N348        N  0.08918791  0.14119173  0.04145610    -0.58900
N349        N  0.17026559  0.11472994  0.04987894    -0.05800
N350        N  0.17801298  0.10003752  0.06954010    -0.61400
C351        C  0.16804661  0.07616976  0.06433722     0.95400
C352        C  0.08894559  0.15561850  0.06374484     0.95100
N353        N  0.18372466  0.21331306  0.03053384    -0.07000
N354        N  0.18312020  0.23878674  0.03396273    -0.59500
N355        N  0.21423906  0.15877655  0.04895314    -0.05100
N356        N  0.23200211  0.14921013  0.06527012    -0.60800
N357        N  0.22582481  0.17121669  0.02959474    -0.07000
N358        N  0.25139523  0.17022362  0.03184000    -0.59800
N359        N  0.17095622  0.20113326  0.04931220    -0.04800
N360        N  0.16117924  0.21829772  0.06607040    -0.60800
Mn361      Mn  0.17084570  0.15781004  0.05026002     1.18400
C362        C  0.16897573  0.24173843  0.05610287     0.97500
C363        C  0.25507521  0.15644385  0.05401056     0.98100
N364        N  0.11297224  0.14306053  0.97043990    -0.07000
N365        N  0.08793599  0.14202518  0.96338119    -0.63300
N366        N  0.16898430  0.11526940  0.95226158    -0.05800
N367        N  0.17834426  0.10043951  0.93353063    -0.64000
N368        N  0.15577362  0.10108611  0.96945100    -0.06500
N369        N  0.15553507  0.07615592  0.96211323    -0.63600
N370        N  0.12644255  0.15731896  0.95353547    -0.05400
N371        N  0.11096147  0.16666929  0.93533238    -0.64300
Mn372      Mn  0.13399767  0.12104096  0.00156754     1.10700
C373        C  0.08706140  0.15727010  0.94156546     0.98700
C374        C  0.17014478  0.07616874  0.93981581     0.98800
N375        N  0.22500614  0.17170395  0.96923424    -0.06600
N376        N  0.25019379  0.17327618  0.96436129    -0.61900
N377        N  0.17006826  0.20131558  0.95167543    -0.05900
N378        N  0.16287199  0.21819722  0.93336104    -0.58700
N379        N  0.18335134  0.21335974  0.97007242    -0.07200
N380        N  0.18573762  0.23840397  0.96483990    -0.61500
N381        N  0.21276798  0.15919147  0.95043981    -0.06200
N382        N  0.22969979  0.15197434  0.93206430    -0.58700
Mn383      Mn  0.20454930  0.19245356  0.99997907     1.20200
Mn384      Mn  0.16937525  0.15814709  0.95135781     1.10100
Cl385      Cl  0.16948428  0.15703099  0.00079854    -0.86700
C386        C  0.25306493  0.16088571  0.94128308     0.95700
C387        C  0.17273051  0.24124454  0.94211845     0.95500
N388        N  0.82199006  0.02599422  0.21682283    -0.06800
N389        N  0.82316014  0.03070778  0.24210374    -0.58900
N390        N  0.79046745  0.03819245  0.16040012    -0.06500
N391        N  0.77145849  0.05133248  0.14842203    -0.61100
N392        N  0.78022336  0.01956144  0.17495604    -0.06100
N393        N  0.75459292  0.01945219  0.17342818    -0.58900
N394        N  0.83387478  0.04448918  0.20339110    -0.05800
N395        N  0.84384524  0.06221944  0.21947861    -0.61400
C396        C  0.83682797  0.05326682  0.24357387     0.95400
C397        C  0.74913118  0.03920274  0.15690661     0.95100
N398        N  0.85114648  0.02329062  0.10471693    -0.07000
N399        N  0.85384433  0.03113047  0.08000083    -0.59500
N400        N  0.87776635  0.04518105  0.15934177    -0.05100
N401        N  0.89189729  0.06539716  0.16694814    -0.60800
N402        N  0.89275068  0.02797831  0.14726047    -0.07000
N403        N  0.91732242  0.03656222  0.14619052    -0.59800
N404        N  0.83546485  0.03933449  0.11740948    -0.04800
N405        N  0.82680394  0.05763243  0.10166411    -0.60800
Mn406      Mn  0.83425949  0.04256834  0.16006738     1.18400
C407        C  0.83808421  0.05240021  0.07842666     0.97500
C408        C  0.91648474  0.05980518  0.15891654     0.98100
N409        N  0.78436037  0.95993034  0.17877130    -0.07000
N410        N  0.75907327  0.95510890  0.17776281    -0.63300
N411        N  0.84094540  0.94754217  0.20913369    -0.05800
N412        N  0.85340692  0.93342152  0.22690866    -0.64000
N413        N  0.82700213  0.96575978  0.22058244    -0.06500
N414        N  0.82952018  0.96455982  0.24622239    -0.63600
N415        N  0.79765428  0.94150594  0.16690701    -0.05400
N416        N  0.78149196  0.92327083  0.15781384    -0.64300
Mn417      Mn  0.80321874  0.99284003  0.19808841     1.10700
C418        C  0.75745359  0.93226663  0.16474186     0.98700
C419        C  0.84606287  0.94436748  0.24997861     0.98800
N420        N  0.89679010  0.96445123  0.15007146    -0.06600
N421        N  0.92159068  0.95676861  0.14784626    -0.61900
N422        N  0.84163253  0.94322554  0.12278035    -0.05900
N423        N  0.83407615  0.92321881  0.10852634    -0.58700
N424        N  0.85441192  0.96040000  0.10817485    -0.07200
N425        N  0.85605312  0.95195308  0.08365022    -0.61500
N426        N  0.88369070  0.94784435  0.16500060    -0.06200
N427        N  0.89919380  0.92941521  0.17371928    -0.58700
Mn428      Mn  0.87456153  0.99405344  0.12689795     1.20200
Mn429      Mn  0.84095705  0.94442734  0.16592699     1.10100
Cl430      Cl  0.83854057  0.99353889  0.16250683    -0.86700
C431        C  0.92273757  0.93502366  0.16321339     0.95700
C432        C  0.84289172  0.92885863  0.08423499     0.95500
N433        N  0.78460192  0.16789859  0.03037271    -0.06800
N434        N  0.75922756  0.16749280  0.03463527    -0.58900
N435        N  0.83931100  0.19843578  0.04940261    -0.06500
N436        N  0.84854811  0.21539292  0.06668017    -0.61100
N437        N  0.82610815  0.21069481  0.03113989    -0.06100
N438        N  0.82604305  0.23602679  0.03526375    -0.58900
N439        N  0.79708227  0.15515368  0.04880583    -0.05800
N440        N  0.78030504  0.14566644  0.06623760    -0.61400
C441        C  0.75672795  0.15349921  0.05694247     0.95400
C442        C  0.84013412  0.23880832  0.05737999     0.95100
N443        N  0.89695129  0.14153992  0.03109247    -0.07000
N444        N  0.92184613  0.14063116  0.03863115    -0.59500
N445        N  0.84065043  0.11264059  0.04704011    -0.05100
N446        N  0.83094294  0.09727220  0.06523269    -0.60800
N447        N  0.85444691  0.09910699  0.02999942    -0.07000
N448        N  0.85491681  0.07405248  0.03699056    -0.59800
N449        N  0.88303704  0.15497071  0.04813611    -0.04800
N450        N  0.89800959  0.16378670  0.06704897    -0.60800
Mn451      Mn  0.84016068  0.15528850  0.04895141     1.18400
C452        C  0.92210257  0.15504747  0.06095604     0.97500
C453        C  0.83967947  0.07333647  0.05885450     0.98100
N454        N  0.82628332  0.21257141  0.97125490    -0.07000
N455        N  0.82667991  0.23818147  0.96916396    -0.63300
N456        N  0.79666277  0.15842093  0.95027926    -0.05800
N457        N  0.77938287  0.15044983  0.93258592    -0.64000
N458        N  0.78452474  0.16960779  0.96996540    -0.06500
N459        N  0.75903546  0.16917372  0.96659189    -0.63600
N460        N  0.83917571  0.20161410  0.95192328    -0.05400
N461        N  0.84833928  0.21988559  0.93576182    -0.64300
Mn462      Mn  0.80517550  0.19023637  0.00064687     1.10700
C463        C  0.84048499  0.24262630  0.94708076     0.98700
C464        C  0.75597977  0.15710669  0.94338582     0.98800
N465        N  0.85489414  0.10091858  0.96664781    -0.06600
N466        N  0.85706228  0.07649161  0.95816968    -0.61900
N467        N  0.88342321  0.15734249  0.95119922    -0.05900
N468        N  0.89872146  0.16545681  0.93208196    -0.58700
N469        N  0.89691227  0.14311640  0.96803297    -0.07200
N470        N  0.92161831  0.14106458  0.96020588    -0.61500
N471        N  0.84130806  0.11499158  0.94975950    -0.06200
N472        N  0.83368204  0.10038699  0.93001731    -0.58700
Mn473      Mn  0.87653708  0.12037568  0.99896048     1.20200
Mn474      Mn  0.84021115  0.15813994  0.95000660     1.10100
Cl475      Cl  0.84080487  0.15575144  0.99951165    -0.86700
C476        C  0.84332260  0.07647587  0.93545424     0.95700
C477        C  0.92242972  0.15549618  0.93792430     0.95500
N478        N  0.03686819  0.81863434  0.78132046    -0.06800
N479        N  0.03934857  0.82153336  0.75584887    -0.58900
N480        N  0.05587106  0.78785562  0.83607670    -0.06500
N481        N  0.07358354  0.77125904  0.84500861    -0.61100
N482        N  0.03796983  0.77540260  0.82250814    -0.06100
N483        N  0.04305764  0.75023451  0.82152676    -0.58900
N484        N  0.05542515  0.83127167  0.79382560    -0.05800
N485        N  0.07143035  0.84286644  0.77691801    -0.61400
C486        C  0.06085474  0.83667805  0.75335564     0.95400
C487        C  0.06516572  0.74788688  0.83572690     0.95100
N488        N  0.03707161  0.84420608  0.89391712    -0.07000
N489        N  0.04463030  0.84522915  0.91881341    -0.59500
N490        N  0.05486748  0.87355969  0.83833323    -0.05100
N491        N  0.07451078  0.88832136  0.83060910    -0.60800
N492        N  0.03801198  0.88722397  0.85225682    -0.07000
N493        N  0.04657742  0.91173749  0.85465880    -0.59800
N494        N  0.05420509  0.83083290  0.88001597    -0.04800
N495        N  0.07310065  0.82211496  0.89502328    -0.60800
Mn496      Mn  0.05560920  0.83086494  0.83710542     1.18400
C497        C  0.06698427  0.83089338  0.91910794     0.97500
C498        C  0.06925692  0.91204589  0.84057497     0.98100
N499        N  0.97718719  0.77412351  0.82253391    -0.07000
N500        N  0.97331705  0.74875745  0.82141538    -0.63300
N501        N  0.95771971  0.82848726  0.79252913    -0.05800
N502        N  0.93965744  0.83553058  0.77531532    -0.64000
N503        N  0.97684233  0.81620247  0.78066250    -0.06500
N504        N  0.97250954  0.81459796  0.75538551    -0.63600
N505        N  0.95799450  0.78566768  0.83512903    -0.05400
N506        N  0.94046784  0.76806336  0.84298613    -0.64300
Mn507      Mn  0.00728586  0.79591479  0.80166273     1.10700
C508        C  0.95052538  0.74507860  0.83429701     0.98700
C509        C  0.94940119  0.82676448  0.75217796     0.98800
N510        N  0.97432172  0.88607362  0.85048358    -0.06600
N511        N  0.96665586  0.91083704  0.85146159    -0.61900
N512        N  0.95678695  0.82973373  0.87849485    -0.05900
N513        N  0.93694460  0.82154131  0.89277330    -0.58700
N514        N  0.97325116  0.84364471  0.89275064    -0.07200
N515        N  0.96429325  0.84541743  0.91714896    -0.61500
N516        N  0.95763656  0.87214788  0.83646741    -0.06200
N517        N  0.93888741  0.88711244  0.82734581    -0.58700
Mn518      Mn  0.00559534  0.86608593  0.87319727     1.20200
Mn519      Mn  0.95692577  0.82908747  0.83572325     1.10100
Cl520      Cl  0.00628195  0.83072257  0.83726440    -0.86700
C521        C  0.94469454  0.91112510  0.83652927     0.95700
C522        C  0.94179050  0.83111899  0.91679729     0.95500
N523        N  0.90062533  0.02478459  0.84822847    -0.06800
N524        N  0.92550424  0.03221083  0.85004244    -0.58900
N525        N  0.84495794  0.04308220  0.87603436    -0.06500
N526        N  0.83608128  0.06225557  0.89057322    -0.61100
N527        N  0.85802196  0.02611197  0.89040244    -0.06100
N528        N  0.85866972  0.03406379  0.91518184    -0.58900
N529        N  0.88737552  0.04158222  0.83380630    -0.05800
N530        N  0.90294541  0.06023682  0.82524305    -0.61400
C531        C  0.92662591  0.05419103  0.83517271     0.95400
C532        C  0.84445825  0.05649733  0.91487316     0.95100
N533        N  0.78822414  0.02447072  0.82140240    -0.07000
N534        N  0.76279814  0.02804879  0.82338237    -0.59500
N535        N  0.84316054  0.04224899  0.78959503    -0.05100
N536        N  0.85312022  0.05832994  0.77164684    -0.60800
N537        N  0.82975930  0.02352183  0.77817693    -0.07000
N538        N  0.83052209  0.02598497  0.75256875    -0.59800
N539        N  0.80108278  0.04308190  0.83359535    -0.04800
N540        N  0.78452331  0.05979663  0.84437188    -0.60800
Mn541      Mn  0.84432545  0.04320352  0.83315886     1.18400
C542        C  0.76067179  0.05005978  0.83778363     0.97500
C543        C  0.84512484  0.04761948  0.74860435     0.98100
N544        N  0.85754190  0.96249900  0.89141045    -0.07000
N545        N  0.85861680  0.95497128  0.91636423    -0.63300
N546        N  0.88609504  0.94541588  0.83486395    -0.05800
N547        N  0.90083644  0.92624074  0.82639833    -0.64000
N548        N  0.89997188  0.96200965  0.84892929    -0.06500
N549        N  0.92459090  0.95386205  0.85061027    -0.63600
N550        N  0.84397703  0.94541235  0.87759651    -0.05400
N551        N  0.83515978  0.92654375  0.89280640    -0.64300
Mn552      Mn  0.87969574  0.99387637  0.87055419     1.10700
C553        C  0.84411585  0.93263485  0.91689216     0.98700
C554        C  0.92475285  0.93166356  0.83603176     0.98800
N555        N  0.82901294  0.96332249  0.77865593    -0.06600
N556        N  0.82866073  0.95930707  0.75319756    -0.61900
N557        N  0.80022462  0.94493902  0.83412264    -0.05900
N558        N  0.78344857  0.92723825  0.84308500    -0.58700
N559        N  0.78774881  0.96354431  0.82160113    -0.07200
N560        N  0.76239566  0.95906785  0.82164897    -0.61500
N561        N  0.84264830  0.94520418  0.79071274    -0.06200
N562        N  0.85218772  0.92840685  0.77340676    -0.58700
Mn563      Mn  0.80832962  0.99378841  0.79979601     1.20200
Mn564      Mn  0.84334754  0.94466922  0.83434160     1.10100
Cl565      Cl  0.84400718  0.99388554  0.83455056    -0.86700
C566        C  0.84323881  0.93762020  0.75008923     0.95700
C567        C  0.75989097  0.93649426  0.83517817     0.95500
N568        N  0.85639360  0.88469108  0.03291218    -0.06800
N569        N  0.85714533  0.90929098  0.04117014    -0.58900
N570        N  0.88556311  0.82750086  0.04640817    -0.06500
N571        N  0.90061100  0.81900286  0.06536227    -0.61100
N572        N  0.89883392  0.84280731  0.03027096    -0.06100
N573        N  0.92334289  0.84536500  0.03876666    -0.58900
N574        N  0.84384895  0.86989057  0.05009332    -0.05800
N575        N  0.83545438  0.88404597  0.06981535    -0.61400
C576        C  0.84358094  0.90848373  0.06408375     0.95400
C577        C  0.92409389  0.82994358  0.06052879     0.95100
N578        N  0.82823253  0.77257553  0.02791561    -0.07000
N579        N  0.82881111  0.74695249  0.02953336    -0.59500
N580        N  0.80021149  0.82680128  0.05088176    -0.05100
N581        N  0.78453828  0.83538844  0.06961708    -0.60800
N582        N  0.78671694  0.81478422  0.03263951    -0.07000
N583        N  0.76165282  0.81454691  0.03851224    -0.59800
N584        N  0.84188244  0.78336973  0.04679885    -0.04800
N585        N  0.85187196  0.76494303  0.06217195    -0.60800
Mn586      Mn  0.84302334  0.82685502  0.04907002     1.18400
C587        C  0.84360755  0.74230669  0.05082557     0.97500
C588        C  0.76056225  0.82752636  0.06147687     0.98100
N589        N  0.89618391  0.84491194  0.96688069    -0.07000
N590        N  0.92100456  0.84552188  0.95912490    -0.63300
N591        N  0.83967808  0.87453178  0.95248863    -0.05800
N592        N  0.83183590  0.88959735  0.93319809    -0.64000
N593        N  0.85469679  0.88771960  0.96887265    -0.06500
N594        N  0.85768763  0.91215546  0.96022455    -0.63600
N595        N  0.88166632  0.83226206  0.94964817    -0.05400
N596        N  0.89631982  0.82372870  0.93027149    -0.64300
Mn597      Mn  0.87727215  0.86588885  0.99974393     1.10700
C598        C  0.92073408  0.83185560  0.93639923     0.98700
C599        C  0.84283906  0.91300054  0.93809812     0.98800
N600        N  0.78355165  0.81750619  0.97168053    -0.06600
N601        N  0.75805208  0.81640438  0.96841333    -0.61900
N602        N  0.83741880  0.78881396  0.94926541    -0.05900
N603        N  0.84703979  0.77237127  0.93173627    -0.58700
N604        N  0.82548914  0.77589656  0.96808341    -0.07200
N605        N  0.82687916  0.75058233  0.96422394    -0.61500
N606        N  0.79476132  0.83131292  0.95298448    -0.06200
N607        N  0.77673657  0.84025257  0.93655628    -0.58700
Mn608      Mn  0.80575886  0.79514319  0.00008658     1.20200
Mn609      Mn  0.83833538  0.83185214  0.95047748     1.10100
Cl610      Cl  0.84128417  0.83030376  0.99980055    -0.86700
C611        C  0.75393056  0.83072840  0.94665151     0.95700
C612        C  0.84033208  0.74860635  0.94160321     0.95500
C613        C  0.93733284  0.71936273  0.83480568    -0.03900
C614        C  0.91925666  0.71217360  0.85434632    -0.06500
C615        C  0.90900676  0.68662011  0.85492919    -0.21600
C616        C  0.91658267  0.66822622  0.83595132     0.24200
C617        C  0.93361463  0.67599823  0.81579071    -0.19100
C618        C  0.94400962  0.70114474  0.81536797    -0.09100
C619        C  0.90728558  0.64078736  0.83746957    -0.19400
C620        C  0.92332117  0.62079662  0.83146044    -0.24200
C621        C  0.91522180  0.59312962  0.83343178     0.26200
C622        C  0.93285346  0.57480146  0.84368451    -0.20900
C623        C  0.92485172  0.54900250  0.84812861    -0.10600
C624        C  0.89930853  0.54110108  0.84169905    -0.11100
C625        C  0.88254684  0.55883305  0.82909164    -0.04100
C626        C  0.89030566  0.58480001  0.82530283    -0.19200
H627        H  0.91381965  0.72589841  0.86953118     0.09900
H628        H  0.89602448  0.68087152  0.87069954     0.10000
H629        H  0.93915371  0.66252253  0.80042118     0.09600
H630        H  0.95749084  0.70628812  0.79974301     0.10800
H631        H  0.88772293  0.63687470  0.84501772     0.10800
H632        H  0.94376168  0.62474963  0.82687137     0.12800
H633        H  0.95229273  0.58084059  0.84970536     0.09300
H634        H  0.93791452  0.53571536  0.85819232     0.11400
H635        H  0.86274334  0.55304568  0.82410189     0.08000
H636        H  0.87665939  0.59848059  0.81665623     0.10700
C637        C  0.86825861  0.54637001  0.88696088    -0.03900
C638        C  0.88927154  0.55786976  0.90044995    -0.06500
C639        C  0.88815890  0.58394306  0.90812189    -0.21600
C640        C  0.86633055  0.59921018  0.90185514     0.24200
C641        C  0.84510303  0.58768621  0.88852964    -0.19100
C642        C  0.84604044  0.56132727  0.88125596    -0.09100
C643        C  0.86587257  0.62661174  0.91087373    -0.19400
C644        C  0.85269584  0.64574780  0.89857811    -0.24200
C645        C  0.85134678  0.67253536  0.90942299     0.26200
C646        C  0.84807700  0.69406138  0.89256688    -0.20900
C647        C  0.84604409  0.71939172  0.90274699    -0.10600
C648        C  0.84635296  0.72320915  0.92993482    -0.11100
C649        C  0.84957431  0.70174190  0.94671817    -0.04100
C650        C  0.85207273  0.67668791  0.93662774    -0.19200
H651        H  0.90680630  0.54671211  0.90449282     0.09900
H652        H  0.90463754  0.59237612  0.91851020     0.10000
H653        H  0.82773916  0.59886541  0.88397574     0.09600
H654        H  0.82989393  0.55282056  0.87044272     0.10800
H655        H  0.87770165  0.63130455  0.92791633     0.10800
H656        H  0.84317106  0.64188858  0.87996032     0.12800
H657        H  0.84705357  0.69123239  0.87155705     0.09300
H658        H  0.84309558  0.73574061  0.88954880     0.11400
H659        H  0.84958200  0.70428178  0.96780352     0.08000
H660        H  0.85357957  0.66054488  0.95029343     0.10700
C661        C  0.89258191  0.44253998  0.85008705    -0.03900
C662        C  0.88347498  0.43084663  0.82700731    -0.06500
C663        C  0.88725180  0.40406656  0.82280989    -0.21600
C664        C  0.89988674  0.38862561  0.84175068     0.24200
C665        C  0.91004429  0.40067439  0.86427550    -0.19100
C666        C  0.90650656  0.42738867  0.86831883    -0.09100
C667        C  0.90396783  0.36041850  0.83672370    -0.19400
C668        C  0.90583170  0.34233447  0.85594371    -0.24200
C669        C  0.91479817  0.31523989  0.85072983     0.26200
C670        C  0.90744945  0.29450647  0.86743133    -0.20900
C671        C  0.91729878  0.26919071  0.86344825    -0.10600
C672        C  0.93546185  0.26467489  0.84327964    -0.11100
C673        C  0.94281283  0.28546476  0.82677871    -0.04100
C674        C  0.93261613  0.31033645  0.83037683    -0.19200
H675        H  0.87250045  0.44218905  0.81286306     0.09900
H676        H  0.87971772  0.39523817  0.80506358     0.10000
H677        H  0.92076667  0.38952988  0.87874745     0.09600
H678        H  0.91373205  0.43615173  0.88622869     0.10800
H679        H  0.90568113  0.35443782  0.81638142     0.10800
H680        H  0.90137461  0.34765736  0.87606585     0.12800
H681        H  0.89452986  0.29802929  0.88382552     0.09300
H682        H  0.91157497  0.25353375  0.87662817     0.11400
H683        H  0.95687446  0.28263267  0.81112034     0.08000
H684        H  0.93963460  0.32590990  0.81775791     0.10700
C685        C  0.84409998  0.26930290  0.93651524    -0.03900
C686        C  0.84475303  0.27432960  0.90950974    -0.06500
C687        C  0.84440624  0.30020504  0.90022198    -0.21600
C688        C  0.84410462  0.32150566  0.91769477     0.24200
C689        C  0.84399374  0.31614359  0.94481690    -0.19100
C690        C  0.84383947  0.29044060  0.95399053    -0.09100
C691        C  0.84418337  0.34874718  0.90684295    -0.19400
C692        C  0.84422606  0.37056418  0.92173720    -0.24200
C693        C  0.84669461  0.39747576  0.91101561     0.26200
C694        C  0.85945705  0.41643029  0.92628827    -0.20900
C695        C  0.86412119  0.44149061  0.91638354    -0.10600
C696        C  0.85537232  0.44837239  0.89127013    -0.11100
C697        C  0.84075439  0.43007873  0.87675552    -0.04100
C698        C  0.83678030  0.40468032  0.88634707    -0.19200
H699        H  0.84454192  0.25833307  0.89563752     0.09900
H700        H  0.84440502  0.30359322  0.87924841     0.10000
H701        H  0.84372421  0.33138468  0.95937249     0.09600
H702        H  0.84318176  0.28707137  0.97496765     0.10800
H703        H  0.84523514  0.35084502  0.88567029     0.10800
H704        H  0.84439000  0.36913908  0.94287332     0.12800
H705        H  0.86704367  0.41141926  0.94546091     0.09300
H706        H  0.87589362  0.45499805  0.92771926     0.11400
H707        H  0.83388521  0.43500648  0.85729291     0.08000
H708        H  0.82623126  0.39073736  0.87438090     0.10700
C709        C  0.88499917  0.54562791  0.13942774    -0.03900
C710        C  0.87550008  0.55713800  0.16242332    -0.06500
C711        C  0.87918561  0.58387599  0.16689553    -0.21600
C712        C  0.89242269  0.59960566  0.14846056     0.24200
C713        C  0.90254111  0.58781803  0.12569444    -0.19100
C714        C  0.89885074  0.56107842  0.12126289    -0.09100
C715        C  0.89701624  0.62765005  0.15470433    -0.19400
C716        C  0.90363862  0.64607584  0.13686143    -0.24200
C717        C  0.91193439  0.67297832  0.14438841     0.26200
C718        C  0.91004184  0.69357939  0.12616069    -0.20900
C719        C  0.91909040  0.71874808  0.13244519    -0.10600
C720        C  0.93108388  0.72340517  0.15672237    -0.11100
C721        C  0.93323636  0.70280377  0.17478845    -0.04100
C722        C  0.92367067  0.67795244  0.16880786    -0.19200
H723        H  0.86450986  0.54555813  0.17649109     0.09900
H724        H  0.87146421  0.59236512  0.18472936     0.10000
H725        H  0.91357108  0.59900157  0.11140460     0.09600
H726        H  0.90627259  0.55248999  0.10335818     0.10800
H727        H  0.89491846  0.63323801  0.17511416     0.10800
H728        H  0.90320875  0.64143752  0.11611841     0.12800
H729        H  0.90191704  0.69010666  0.10690508     0.09300
H730        H  0.91764357  0.73425328  0.11802095     0.11400
H731        H  0.94263502  0.70585293  0.19356165     0.08000
H732        H  0.92652957  0.66250516  0.18302319     0.10700
C733        C  0.84772154  0.53621623  0.09890205    -0.03900
C734        C  0.85729221  0.54210039  0.07375453    -0.06500
C735        C  0.85417077  0.56721748  0.06335400    -0.21600
C736        C  0.84216605  0.58683813  0.07830937     0.24200
C737        C  0.83061864  0.58027873  0.10245478    -0.19100
C738        C  0.83298407  0.55497112  0.11244962    -0.09100
C739        C  0.84261164  0.61411948  0.06867365    -0.19400
C740        C  0.84777159  0.63455059  0.08463051    -0.24200
C741        C  0.84914093  0.66231389  0.07567790     0.26200
C742        C  0.84924435  0.68247568  0.09446682    -0.20900
C743        C  0.84912063  0.70886899  0.08672962    -0.10600
C744        C  0.84854427  0.71540499  0.06003385    -0.11100
C745        C  0.84945157  0.69534915  0.04134100    -0.04100
C746        C  0.85008014  0.66919501  0.04897605    -0.19200
H747        H  0.86884036  0.52791749  0.06308651     0.09900
H748        H  0.86276369  0.57183078  0.04446144     0.10000
H749        H  0.82054747  0.59490658  0.11395983     0.09600
H750        H  0.82540456  0.55066858  0.13183933     0.10800
H751        H  0.83992666  0.61684073  0.04781685     0.10800
H752        H  0.85093660  0.63077025  0.10535941     0.12800
H753        H  0.84887550  0.67779161  0.11518638     0.09300
H754        H  0.84824602  0.72401362  0.10150358     0.11400
H755        H  0.84922314  0.69993029  0.02059122     0.08000
H756        H  0.85104012  0.65469626  0.03367057     0.10700
C757        C  0.89365165  0.44851095  0.15409584    -0.03900
C758        C  0.87847982  0.43313089  0.17121780    -0.06500
C759        C  0.88581399  0.40744436  0.17687959    -0.21600
C760        C  0.90820403  0.39670079  0.16523060     0.24200
C761        C  0.92463597  0.41280567  0.14996684    -0.19100
C762        C  0.91751201  0.43868462  0.14464666    -0.09100
C763        C  0.91371159  0.36856935  0.16899239    -0.19400
C764        C  0.92161559  0.35298570  0.14924105    -0.24200
C765        C  0.92696550  0.32467747  0.15304483     0.26200
C766        C  0.92401663  0.30708804  0.13205108    -0.20900
C767        C  0.93032688  0.28051916  0.13511733    -0.10600
C768        C  0.94049409  0.27150728  0.15899728    -0.11100
C769        C  0.94308646  0.28903895  0.17996895    -0.04100
C770        C  0.93635341  0.31524053  0.17710572    -0.19200
H771        H  0.85989321  0.44032149  0.17845652     0.09900
H772        H  0.87310526  0.39542868  0.18899683     0.10000
H773        H  0.94242299  0.40509696  0.14140460     0.09600
H774        H  0.92935414  0.45020956  0.13124784     0.10800
H775        H  0.90903205  0.36011865  0.18798687     0.10800
H776        H  0.92340231  0.36104408  0.12957693     0.12800
H777        H  0.91703447  0.31397599  0.11323225     0.09300
H778        H  0.92847229  0.26739173  0.11858857     0.11400
H779        H  0.95103500  0.28256923  0.19855643     0.08000
H780        H  0.93960560  0.32824448  0.19349212     0.10700
C781        C  0.84347192  0.26427400  0.07036436    -0.03900
C782        C  0.85743799  0.26676425  0.09388402    -0.06500
C783        C  0.85959204  0.29119124  0.10604086    -0.21600
C784        C  0.84759994  0.31326453  0.09499645     0.24200
C785        C  0.83376632  0.31070716  0.07139930    -0.19100
C786        C  0.83177350  0.28649557  0.05921682    -0.09100
C787        C  0.85195019  0.33932883  0.10658052    -0.19400
C788        C  0.83418460  0.35858898  0.10467037    -0.24200
C789        C  0.84125242  0.38615809  0.10945458     0.26200
C790        C  0.82272073  0.40348374  0.11989513    -0.20900
C791        C  0.82912739  0.42989813  0.12334115    -0.10600
C792        C  0.85390996  0.43924206  0.11585227    -0.11100
C793        C  0.87193875  0.42211339  0.10436410    -0.04100
C794        C  0.86580453  0.39577376  0.10143713    -0.19200
H795        H  0.86665174  0.24992385  0.10282165     0.09900
H796        H  0.87050616  0.29286435  0.12412895     0.10000
H797        H  0.82511616  0.32754075  0.06189751     0.09600
H798        H  0.82104381  0.28524688  0.04095854     0.10800
H799        H  0.87086653  0.34321457  0.11554168     0.10800
H800        H  0.81440005  0.35428345  0.09809300     0.12800
H801        H  0.80350033  0.39648815  0.12568507     0.09300
H802        H  0.81500505  0.44294990  0.13219924     0.11400
H803        H  0.89094477  0.42915183  0.09796609     0.08000
H804        H  0.88009383  0.38305159  0.09237930     0.10700
C805        C  0.84735419  0.50064875  0.91426272    -0.03900
C806        C  0.86138848  0.51116842  0.93542298    -0.06500
C807        C  0.84985950  0.51340358  0.96004126    -0.21600
C808        C  0.82454155  0.50376731  0.96450731     0.24200
C809        C  0.81040826  0.49275870  0.94362367    -0.19100
C810        C  0.82161486  0.49162007  0.91848999    -0.09100
C811        C  0.81476061  0.50363871  0.99175770    -0.19400
C812        C  0.80821454  0.48113853  0.00372514    -0.24200
C813        C  0.81512806  0.47812756  0.03158871     0.26200
C814        C  0.80168741  0.49147925  0.05149136    -0.20900
C815        C  0.81237818  0.49294689  0.07676638    -0.10600
C816        C  0.83706329  0.48198497  0.08198993    -0.11100
C817        C  0.84980979  0.46788097  0.06214509    -0.04100
C818        C  0.83866175  0.46548074  0.03739541    -0.19200
H819        H  0.88166530  0.51694441  0.93311907     0.09900
H820        H  0.86128360  0.52141257  0.97603060     0.10000
H821        H  0.79089008  0.48498801  0.94681268     0.09600
H822        H  0.81055207  0.48309928  0.90254040     0.10800
H823        H  0.82011420  0.52031381  0.00388622     0.10800
H824        H  0.80625995  0.46345561  0.99208609     0.12800
H825        H  0.78362258  0.50163391  0.04717499     0.09300
H826        H  0.80219125  0.50388349  0.09177722     0.11400
H827        H  0.86918264  0.45998656  0.06531457     0.08000
H828        H  0.84953949  0.45560078  0.02209669     0.10700
C829        C  0.11153959  0.54402030  0.15036356    -0.03900
C830        C  0.11766566  0.55705055  0.17369547    -0.06500
C831        C  0.10931733  0.58278151  0.17754140    -0.21600
C832        C  0.09510728  0.59575892  0.15794232     0.24200
C833        C  0.08822946  0.58234353  0.13499778    -0.19100
C834        C  0.09628947  0.55663720  0.13131349    -0.09100
C835        C  0.08682939  0.62301347  0.16202494    -0.19400
C836        C  0.08690981  0.64072567  0.14251394    -0.24200
C837        C  0.07736216  0.66750111  0.14685163     0.26200
C838        C  0.09153068  0.68898745  0.13711173    -0.20900
C839        C  0.08314011  0.71449004  0.14227388    -0.10600
C840        C  0.06010529  0.71860891  0.15670747    -0.11100
C841        C  0.04542202  0.69695612  0.16547713    -0.04100
C842        C  0.05402515  0.67165440  0.16069097    -0.19200
H843        H  0.12955904  0.54759429  0.18846862     0.09900
H844        H  0.11454835  0.59281264  0.19546852     0.10000
H845        H  0.07664051  0.59172216  0.11993345     0.09600
H846        H  0.09132970  0.54677756  0.11321711     0.10800
H847        H  0.08134775  0.62891772  0.18173675     0.10800
H848        H  0.09502045  0.63581091  0.12344788     0.12800
H849        H  0.10936253  0.68598661  0.12610398     0.09300
H850        H  0.09469793  0.73086897  0.13520971     0.11400
H851        H  0.02736802  0.69951095  0.17635273     0.08000
H852        H  0.04242926  0.65529394  0.16777770     0.10700
C853        C  0.15196091  0.54120238  0.11210537    -0.03900
C854        C  0.14196662  0.54793264  0.08740188    -0.06500
C855        C  0.14431214  0.57354547  0.07808298    -0.21600
C856        C  0.15616706  0.59294032  0.09351445     0.24200
C857        C  0.16739034  0.58591263  0.11763298    -0.19100
C858        C  0.16544917  0.56016491  0.12675096    -0.09100
C859        C  0.15675727  0.62016487  0.08361757    -0.19400
C860        C  0.15456439  0.64133457  0.09923466    -0.24200
C861        C  0.15471227  0.66872190  0.08909890     0.26200
C862        C  0.15949777  0.68955136  0.10648946    -0.20900
C863        C  0.16156152  0.71534188  0.09719353    -0.10600
C864        C  0.15938193  0.72049302  0.07028174    -0.11100
C865        C  0.15333971  0.70000023  0.05315060    -0.04100
C866        C  0.15055354  0.67451490  0.06243507    -0.19200
H867        H  0.13086777  0.53382523  0.07611962     0.09900
H868        H  0.13572122  0.57852354  0.05933149     0.10000
H869        H  0.17731631  0.60031846  0.12958829     0.09600
H870        H  0.17301070  0.55536103  0.14598219     0.10800
H871        H  0.15818254  0.62236139  0.06255304     0.10800
H872        H  0.15298572  0.63855196  0.12030573     0.12800
H873        H  0.16231648  0.68577012  0.12719582     0.09300
H874        H  0.16626679  0.73094443  0.11073666     0.11400
H875        H  0.15119680  0.70367196  0.03233048     0.08000
H876        H  0.14546084  0.65959358  0.04838899     0.10700
C877        C  0.11130724  0.44588079  0.15901934    -0.03900
C878        C  0.12680159  0.42785251  0.17280378    -0.06500
C879        C  0.11853873  0.40187213  0.17559886    -0.21600
C880        C  0.09434846  0.39383007  0.16522145     0.24200
C881        C  0.07793484  0.41238527  0.15352772    -0.19100
C882        C  0.08650723  0.43808078  0.15002674    -0.09100
C883        C  0.08582396  0.36619554  0.16551898    -0.19400
C884        C  0.10225491  0.34612771  0.16090913    -0.24200
C885        C  0.09296809  0.31861629  0.15880186     0.26200
C886        C  0.11017621  0.29791934  0.16443091    -0.20900
C887        C  0.10118133  0.27192230  0.16437042    -0.10600
C888        C  0.07480779  0.26649174  0.15885064    -0.11100
C889        C  0.05809196  0.28697989  0.15179301    -0.04100
C890        C  0.06711522  0.31268627  0.15134331    -0.19200
H891        H  0.14607683  0.43346224  0.17968411     0.09900
H892        H  0.13126794  0.38800629  0.18527754     0.10000
H893        H  0.05914312  0.40657140  0.14554495     0.07200
H894        H  0.07455738  0.45131942  0.13863111     0.10800
H895        H  0.06498424  0.36265510  0.16786475     0.10800
H896        H  0.12311079  0.34991739  0.15872209     0.12800
H897        H  0.13033950  0.30194984  0.16970021     0.09300
H898        H  0.11432812  0.25634874  0.17006403     0.11400
H899        H  0.03770959  0.28311956  0.14724507     0.08000
H900        H  0.05356747  0.32779843  0.14547367     0.10700
C901        C  0.16452485  0.26751366  0.06826138    -0.03900
C902        C  0.14515993  0.27121887  0.08743827    -0.06500
C903        C  0.14090506  0.29616080  0.09791853    -0.21600
C904        C  0.15645310  0.31752206  0.09001221     0.24200
C905        C  0.17589137  0.31367100  0.07090762    -0.19100
C906        C  0.17977017  0.28899393  0.06008963    -0.09100
C907        C  0.15069679  0.34402177  0.10015602    -0.19400
C908        C  0.16901754  0.36300910  0.10173969    -0.24200
C909        C  0.16248874  0.39047229  0.10803746     0.26200
C910        C  0.18112643  0.40647285  0.12047708    -0.20900
C911        C  0.17524623  0.43252663  0.12640615    -0.10600
C912        C  0.15081195  0.44289255  0.11959906    -0.11100
C913        C  0.13276039  0.42732494  0.10594572    -0.04100
C914        C  0.13844316  0.40132061  0.10036562    -0.19200
H915        H  0.13297958  0.25502605  0.09386821     0.09900
H916        H  0.12535053  0.29883566  0.11206600     0.10000
H917        H  0.18759034  0.32983583  0.06361494     0.09600
H918        H  0.19475396  0.28676953  0.04520544     0.10800
H919        H  0.13070529  0.34803395  0.10624097     0.10800
H920        H  0.18948376  0.35836317  0.09832069     0.12800
H921        H  0.19996582  0.39862032  0.12612418     0.09300
H922        H  0.18934151  0.44432930  0.13699592     0.11400
H923        H  0.11389394  0.43514902  0.10035667     0.08000
H924        H  0.12405967  0.38983375  0.08984877     0.10700
C925        C  0.91567882  0.50177896  0.15862850    -0.03900
C926        C  0.93651152  0.51139219  0.14344190    -0.06500
C927        C  0.96070792  0.51639638  0.15477383    -0.21600
C928        C  0.96491492  0.51104618  0.18134336     0.24200
C929        C  0.94436992  0.50090575  0.19670065    -0.19100
C930        C  0.91965842  0.49650328  0.18538878    -0.09100
C931        C  0.99142997  0.51576920  0.19158677    -0.19400
C932        C  0.00722198  0.49564705  0.19746426    -0.24200
C933        C  0.03474587  0.49643262  0.18828684     0.26200
C934        C  0.05564180  0.48783710  0.20394761    -0.20900
C935        C  0.08135643  0.48810903  0.19393651    -0.10600
C936        C  0.08609407  0.49641853  0.16803522    -0.11100
C937        C  0.06495823  0.50396567  0.15234011    -0.04100
C938        C  0.03971694  0.50420182  0.16234718    -0.19200
H939        H  0.93399604  0.51498635  0.12266537     0.09900
H940        H  0.97643769  0.52393995  0.14257868     0.10000
H941        H  0.94741090  0.49663867  0.21726887     0.09600
H942        H  0.90377395  0.48894581  0.19733627     0.10800
H943        H  0.00053050  0.53410080  0.18551237     0.10800
H944        H  0.99894122  0.47675490  0.20279347     0.12800
H945        H  0.05207367  0.48108063  0.22377248     0.09300
H946        H  0.09738681  0.48146807  0.20608742     0.11400
H947        H  0.06794045  0.50899132  0.13192172     0.08000
H948        H  0.02385260  0.50976269  0.14944511     0.10700
C949        C  0.07877720  0.72289534  0.83883756    -0.03900
C950        C  0.08891463  0.71522439  0.86311339    -0.06500
C951        C  0.09776292  0.68959967  0.86669172    -0.21600
C952        C  0.09750767  0.67161905  0.84584397     0.24200
C953        C  0.08849428  0.68000722  0.82116163    -0.19100
C954        C  0.07906291  0.70531606  0.81782242    -0.09100
C955        C  0.10413400  0.64383751  0.85130232    -0.19400
C956        C  0.10719238  0.62549270  0.83258457    -0.24200
C957        C  0.10984937  0.59723335  0.83858758     0.26200
C958        C  0.12221858  0.58080897  0.82034697    -0.20900
C959        C  0.12556702  0.55419513  0.82580291    -0.10600
C960        C  0.11635011  0.54366021  0.84947288    -0.11100
C961        C  0.10240202  0.55965358  0.86687607    -0.04100
C962        C  0.09923833  0.58619478  0.86156931    -0.19200
H963        H  0.08851407  0.72848249  0.87964001     0.09900
H964        H  0.10391515  0.68353046  0.88605901     0.10000
H965        H  0.08725881  0.66693711  0.80461868     0.09600
H966        H  0.07123610  0.71095984  0.79891474     0.10800
H967        H  0.10588304  0.63820228  0.87175464     0.10800
H968        H  0.10807681  0.63105665  0.81210275     0.12800
H969        H  0.13001890  0.58875598  0.80222875     0.09300
H970        H  0.13637393  0.54210094  0.81218032     0.11400
H971        H  0.09486636  0.55171281  0.88510761     0.08000
H972        H  0.08849630  0.59791648  0.87552491     0.10700
C973        C  0.15226418  0.53860629  0.89212845    -0.03900
C974        C  0.14166757  0.54583185  0.91640189    -0.06500
C975        C  0.14535861  0.57109326  0.92588847    -0.21600
C976        C  0.15911010  0.58972587  0.91098691     0.24200
C977        C  0.17104474  0.58209079  0.88736925    -0.19100
C978        C  0.16780663  0.55658046  0.87812781    -0.09100
C979        C  0.16053906  0.61679398  0.92093976    -0.19400
C980        C  0.16296945  0.63808738  0.90547018    -0.24200
C981        C  0.16394467  0.66500896  0.91634917     0.26200
C982        C  0.15755593  0.68655576  0.90041384    -0.20900
C983        C  0.15799126  0.71205144  0.91060680    -0.10600
C984        C  0.16549421  0.71627382  0.93671503    -0.11100
C985        C  0.17232695  0.69474355  0.95235478    -0.04100
C986        C  0.17177758  0.66954526  0.94232840    -0.19200
H987        H  0.12901502  0.53255942  0.92713920     0.09900
H988        H  0.13624998  0.57649216  0.94428396     0.10000
H989        H  0.18246618  0.59581711  0.87584844     0.09600
H990        H  0.17596302  0.55132071  0.85925577     0.10800
H991        H  0.15751891  0.61914820  0.94184472     0.10800
H992        H  0.16311323  0.63587245  0.88430203     0.12800
H993        H  0.15224964  0.68362447  0.88009815     0.09300
H994        H  0.15307907  0.72838056  0.89800307     0.11400
H995        H  0.17855709  0.69734244  0.97247333     0.08000
H996        H  0.17819010  0.65385829  0.95498669     0.10700
C997        C  0.11054371  0.44508697  0.84395505    -0.03900
C998        C  0.12548459  0.42967387  0.82688035    -0.06500
C999        C  0.11980730  0.40308178  0.82399302    -0.21600
C1000       C  0.09934422  0.39158017  0.83838655     0.24200
C1001       C  0.08261555  0.40773142  0.85316052    -0.19100
C1002       C  0.08818676  0.43435018  0.85588023    -0.09100
C1003       C  0.09651731  0.36270969  0.83844141    -0.19400
C1004       C  0.08688256  0.34955358  0.85919536    -0.24200
C1005       C  0.08144291  0.32126395  0.85824697     0.26200
C1006       C  0.05653482  0.31251347  0.86578234    -0.20900
C1007       C  0.04965853  0.28630433  0.86285396    -0.10600
C1008       C  0.06795950  0.26825283  0.85339663    -0.11100
C1009       C  0.09348380  0.27659289  0.84737363    -0.04100
C1010       C  0.10010350  0.30314666  0.84936878    -0.19200
H1011       H  0.14284992  0.43772873  0.81761085     0.09900
H1012       H  0.13256662  0.39114003  0.81202375     0.10000
H1013       H  0.06587097  0.39970992  0.86349172     0.09600
H1014       H  0.07646563  0.44602800  0.86911384     0.10800
H1015       H  0.10301141  0.35195750  0.82127484     0.10800
H1016       H  0.08045484  0.36000507  0.87653245     0.12800
H1017       H  0.04195473  0.32624151  0.87266810     0.09300
H1018       H  0.02975877  0.28021323  0.86723653     0.11400
H1019       H  0.10768492  0.26293031  0.83963943     0.08000
H1020       H  0.11955858  0.30959379  0.84373140     0.10700
C1021       C  0.14616141  0.44087364  0.88569486    -0.03900
C1022       C  0.12863035  0.42817653  0.90268676    -0.06500
C1023       C  0.13092943  0.40148978  0.90742663    -0.21600
C1024       C  0.15074965  0.38701665  0.89525989     0.24200
C1025       C  0.16883344  0.39990692  0.87875323    -0.19100
C1026       C  0.16661749  0.42676010  0.87418863    -0.09100
C1027       C  0.15110847  0.35846649  0.89967608    -0.19400
C1028       C  0.17266779  0.34378596  0.89706821    -0.24200
C1029       C  0.17298912  0.31617644  0.90552504     0.26200
C1030       C  0.19566743  0.30654924  0.91741880    -0.20900
C1031       C  0.19562133  0.28172031  0.92864323    -0.10600
C1032       C  0.17312838  0.26587056  0.92747525    -0.11100
C1033       C  0.15095034  0.27470080  0.91412020    -0.04100
C1034       C  0.15078247  0.29985954  0.90336336    -0.19200
H1035       H  0.11214264  0.43857145  0.91093057     0.09900
H1036       H  0.11668312  0.39196620  0.92004890     0.10000
H1037       H  0.18391708  0.38925897  0.86844470     0.09600
H1038       H  0.17977160  0.43621083  0.86038849     0.10800
H1039       H  0.13335060  0.34959725  0.90751295     0.10800
H1040       H  0.19122711  0.35282937  0.89179935     0.12800
H1041       H  0.21300900  0.31871849  0.91913818     0.09300
H1042       H  0.21304881  0.27505593  0.93870860     0.11400
H1043       H  0.13346327  0.26267208  0.91306656     0.08000
H1044       H  0.13317861  0.30668010  0.89384593     0.10700
C1045       C  0.15985715  0.48671692  0.91575816    -0.03900
C1046       C  0.14246783  0.48016354  0.93602522    -0.06500
C1047       C  0.15166679  0.47494734  0.96108315    -0.21600
C1048       C  0.17838006  0.47709894  0.96677435     0.24200
C1049       C  0.19597659  0.48476098  0.94690990    -0.19100
C1050       C  0.18672376  0.48934558  0.92130356    -0.09100
C1051       C  0.18651884  0.47045777  0.99369386    -0.19400
C1052       C  0.19350106  0.48911884  0.01086067    -0.24200
C1053       C  0.18470355  0.48744252  0.03862041     0.26200
C1054       C  0.19992822  0.49766653  0.05916763    -0.20900
C1055       C  0.18986539  0.49847428  0.08486149    -0.10600
C1056       C  0.16430169  0.48951193  0.09005223    -0.11100
C1057       C  0.14916249  0.47962297  0.06943790    -0.04100
C1058       C  0.15923330  0.47840797  0.04415545    -0.19200
H1059       H  0.12163676  0.47874460  0.93227366     0.09900
H1060       H  0.13779730  0.46931420  0.97621333     0.10000
H1061       H  0.21670597  0.48651732  0.95104424     0.09600
H1062       H  0.20039066  0.49454352  0.90586988     0.10800
H1063       H  0.17876986  0.45213036  0.00139093     0.10800
H1064       H  0.20097301  0.50777293  0.00377269     0.12800
H1065       H  0.21938195  0.50527686  0.05526107     0.09300
H1066       H  0.20167289  0.50658786  0.10048819     0.11400
H1067       H  0.12907656  0.47356436  0.07281239     0.08000
H1068       H  0.14650402  0.47151747  0.02866464     0.10700
C1069       C  0.08964276  0.49657428  0.82926808    -0.03900
C1070       C  0.06721444  0.50909954  0.83900152    -0.06500
C1071       C  0.04334649  0.50697928  0.82597315    -0.21600
C1072       C  0.04108082  0.49131713  0.80352127     0.24200
C1073       C  0.06355328  0.47952604  0.79314523    -0.19100
C1074       C  0.08785120  0.48284498  0.80545375    -0.09100
C1075       C  0.01476478  0.48304367  0.79478945    -0.19400
C1076       C  0.99482429  0.50006359  0.79374753    -0.24200
C1077       C  0.96825634  0.49251127  0.80259018     0.26200
C1078       C  0.94602469  0.50427026  0.79162510    -0.20900
C1079       C  0.92156040  0.50179276  0.80398583    -0.10600
C1080       C  0.91939474  0.48879605  0.82826262    -0.11100
C1081       C  0.94158980  0.47642433  0.83861637    -0.04100
C1082       C  0.96555576  0.47773665  0.82566544    -0.19200
H1083       H  0.06763986  0.51898703  0.85770834     0.09900
H1084       H  0.02614128  0.51560750  0.83486838     0.10000
H1085       H  0.06211353  0.46698856  0.77612108     0.09600
H1086       H  0.10488155  0.47320338  0.79738482     0.10800
H1087       H  0.01063460  0.46216817  0.79512346     0.10800
H1088       H  0.99898934  0.52087723  0.79218053     0.12800
H1089       H  0.94781134  0.51622277  0.77414814     0.09300
H1090       H  0.90476869  0.51163257  0.79564865     0.11400
H1091       H  0.94094461  0.46735698  0.85777587     0.08000
H1092       H  0.98252461  0.46925711  0.83510425     0.10700
C1093       C  0.55868848  0.87966809  0.84965583    -0.03900
C1094       C  0.56856018  0.87017054  0.82588810    -0.06500
C1095       C  0.59510195  0.87331957  0.81978044    -0.21600
C1096       C  0.61203182  0.88549219  0.83764797     0.24200
C1097       C  0.60191870  0.89565131  0.86109696    -0.19100
C1098       C  0.57542669  0.89286567  0.86697350    -0.09100
C1099       C  0.63980397  0.88943741  0.83082983    -0.19400
C1100       C  0.65888058  0.88805974  0.84890881    -0.24200
C1101       C  0.68523663  0.89893280  0.84389975     0.26200
C1102       C  0.70737004  0.88794741  0.85587371    -0.20900
C1103       C  0.73199054  0.89988127  0.85307947    -0.10600
C1104       C  0.73453663  0.92308740  0.83848686    -0.11100
C1105       C  0.71234206  0.93384934  0.82646333    -0.04100
C1106       C  0.68800359  0.92195020  0.82913762    -0.19200
H1107       H  0.55585295  0.85981504  0.81243433     0.09900
H1108       H  0.60254116  0.86581293  0.80139310     0.10000
H1109       H  0.61444515  0.90594586  0.87476842     0.09600
H1110       H  0.56808930  0.90039844  0.88537826     0.10800
H1111       H  0.64449954  0.89476593  0.81072391     0.10800
H1112       H  0.65461693  0.88036413  0.86833829     0.12800
H1113       H  0.70558593  0.87016279  0.86727522     0.09300
H1114       H  0.74886441  0.89116472  0.86245351     0.11400
H1115       H  0.71365542  0.95173688  0.81510919     0.08000
H1116       H  0.67118658  0.93133528  0.82033341     0.10700
C1117       C  0.55007627  0.84141785  0.88945474    -0.03900
C1118       C  0.56413492  0.82210729  0.87608226    -0.06500
C1119       C  0.58945782  0.81560701  0.88405595    -0.21600
C1120       C  0.60125187  0.82881908  0.90504321     0.24200
C1121       C  0.58637990  0.84671396  0.91967761    -0.19100
C1122       C  0.56080252  0.85274753  0.91207486    -0.09100
C1123       C  0.62927418  0.82411564  0.91069376    -0.19400
C1124       C  0.64579478  0.84350357  0.91768165    -0.24200
C1125       C  0.67418858  0.83929514  0.92240356     0.26200
C1126       C  0.69184966  0.86032141  0.91951457    -0.20900
C1127       C  0.71850974  0.85725350  0.92541674    -0.10600
C1128       C  0.72760181  0.83332500  0.93518328    -0.11100
C1129       C  0.71008923  0.81218699  0.93751723    -0.04100
C1130       C  0.68372239  0.81505965  0.93112903    -0.19200
H1131       H  0.55613731  0.81332460  0.85851933     0.09900
H1132       H  0.60046205  0.80145170  0.87279239     0.10000
H1133       H  0.59478480  0.85660704  0.93643053     0.09600
H1134       H  0.55017766  0.86778284  0.92252436     0.10800
H1135       H  0.63686272  0.80474115  0.90662789     0.10800
H1136       H  0.63848441  0.86340172  0.91890000     0.12800
H1137       H  0.68491779  0.87925068  0.91302119     0.09300
H1138       H  0.73163140  0.87388023  0.92376508     0.11400
H1139       H  0.71667432  0.79355433  0.94516841     0.08000
H1140       H  0.67071775  0.79858184  0.93427687     0.10700
C1141       C  0.46138693  0.89418995  0.84294966    -0.03900
C1142       C  0.45507304  0.91944489  0.85154111    -0.06500
C1143       C  0.42970648  0.92903057  0.84821899    -0.21600
C1144       C  0.41023362  0.91314947  0.83707919     0.24200
C1145       C  0.41713806  0.88883960  0.82644281    -0.19100
C1146       C  0.44268866  0.87961735  0.82901743    -0.09100
C1147       C  0.38272916  0.92191489  0.83787197    -0.19400
C1148       C  0.36276968  0.90546049  0.84362634    -0.24200
C1149       C  0.33505243  0.91403031  0.84564022     0.26200
C1150       C  0.31481343  0.89548607  0.84278638    -0.20900
C1151       C  0.28851594  0.90336152  0.84224702    -0.10600
C1152       C  0.28231718  0.92996982  0.84421005    -0.11100
C1153       C  0.30236271  0.94821419  0.84872766    -0.04100
C1154       C  0.32839680  0.94034499  0.84985132    -0.19200
H1155       H  0.46908002  0.93084766  0.86266275     0.09900
H1156       H  0.42478792  0.94802034  0.85615705     0.10000
H1157       H  0.40260207  0.87659108  0.81702782     0.09600
H1158       H  0.44726365  0.86008147  0.82228199     0.10800
H1159       H  0.37933978  0.94262993  0.83504510     0.10800
H1160       H  0.36682144  0.88480778  0.84655482     0.12800
H1161       H  0.31946063  0.87508527  0.83971341     0.09300
H1162       H  0.27330516  0.88899699  0.83861949     0.11400
H1163       H  0.29790848  0.96882922  0.85066422     0.08000
H1164       H  0.34310709  0.95512712  0.85353938     0.10700
C1165       C  0.45328494  0.85812945  0.88456708    -0.03900
C1166       C  0.44321852  0.87794643  0.90056044    -0.06500
C1167       C  0.41713509  0.87737146  0.90847655    -0.21600
C1168       C  0.40044838  0.85726667  0.90011480     0.24200
C1169       C  0.41057213  0.83709672  0.88434655    -0.19100
C1170       C  0.43695867  0.83747053  0.87673138    -0.09100
C1171       C  0.37319436  0.85714608  0.90989944    -0.19400
C1172       C  0.35294151  0.84624036  0.89707544    -0.24200
C1173       C  0.32659443  0.84412077  0.90921706     0.26200
C1174       C  0.30413482  0.84300863  0.89338172    -0.20900
C1175       C  0.27930027  0.83960964  0.90467414    -0.10600
C1176       C  0.27680818  0.83645197  0.93190332    -0.11100
C1177       C  0.29920628  0.83759517  0.94768557    -0.04100
C1178       C  0.32380008  0.84144812  0.93652558    -0.19200
H1179       H  0.45551075  0.89423755  0.90639525     0.09900
H1180       H  0.40983471  0.89293940  0.92082994     0.10000
H1181       H  0.39828095  0.82094752  0.87819183     0.09600
H1182       H  0.44444418  0.82218998  0.86414232     0.10800
H1183       H  0.36966093  0.86707859  0.92836117     0.10800
H1184       H  0.35566576  0.83876408  0.87734870     0.12800
H1185       H  0.30583349  0.84439894  0.87228532     0.09300
H1186       H  0.26225097  0.83844925  0.89212418     0.11400
H1187       H  0.29775904  0.83508208  0.96873677     0.08000
H1188       H  0.34066066  0.84124542  0.94934191     0.10700
C1189       C  0.55199826  0.88283909  0.14971687    -0.03900
C1190       C  0.56910845  0.86724728  0.16455793    -0.06500
C1191       C  0.59506961  0.87513121  0.16859030    -0.21600
C1192       C  0.60400752  0.89913831  0.15850445     0.24200
C1193       C  0.58626542  0.91565139  0.14560549    -0.19100
C1194       C  0.56056992  0.90743698  0.14089738    -0.09100
C1195       C  0.63163257  0.90769426  0.16084507    -0.19400
C1196       C  0.65230514  0.89145839  0.15830184    -0.24200
C1197       C  0.67991156  0.90115336  0.15736671     0.26200
C1198       C  0.70080528  0.88415331  0.16314458    -0.20900
C1199       C  0.72676877  0.89351590  0.16372938    -0.10600
C1200       C  0.73197072  0.92006489  0.15879890    -0.11100
C1201       C  0.71135918  0.93653951  0.15159143    -0.04100
C1202       C  0.68577685  0.92717804  0.15042549    -0.19200
H1203       H  0.56285979  0.84812576  0.17135354     0.09900
H1204       H  0.60819262  0.86231112  0.17914686     0.10000
H1205       H  0.59273567  0.93435215  0.13786932     0.09600
H1206       H  0.54790650  0.91952654  0.12897080     0.10800
H1207       H  0.63472734  0.92855707  0.16298220     0.10800
H1208       H  0.64893047  0.87054750  0.15648784     0.12800
H1209       H  0.69695389  0.86383221  0.16788653     0.09300
H1210       H  0.74243887  0.88048162  0.16941877     0.11400
H1211       H  0.71501024  0.95702821  0.14739087     0.08000
H1212       H  0.67075648  0.94066457  0.14424656     0.10700
C1213       C  0.55735385  0.84389119  0.11056057    -0.03900
C1214       C  0.56744773  0.82031829  0.12007029    -0.06500
C1215       C  0.59417898  0.81519593  0.11789468    -0.21600
C1216       C  0.61106902  0.83358277  0.10623884     0.24200
C1217       C  0.60055420  0.85643466  0.09513114    -0.19100
C1218       C  0.57386878  0.86155952  0.09736159    -0.09100
C1219       C  0.63929152  0.82764652  0.10481667    -0.19400
C1220       C  0.65798744  0.84607680  0.10197371    -0.24200
C1221       C  0.68547126  0.83950763  0.09559606     0.26200
C1222       C  0.70531277  0.85829742  0.09926797    -0.20900
C1223       C  0.73069256  0.85381663  0.08988533    -0.10600
C1224       C  0.73609276  0.83083963  0.07600304    -0.11100
C1225       C  0.71666348  0.81167099  0.07332516    -0.04100
C1226       C  0.69164130  0.81588798  0.08299465    -0.19200
H1227       H  0.55490242  0.80663631  0.13045064     0.09900
H1228       H  0.60182224  0.79721242  0.12607577     0.10000
H1229       H  0.61281911  0.87048472  0.08496212     0.09600
H1230       H  0.56628650  0.87989363  0.08996987     0.10800
H1231       H  0.64471345  0.80720446  0.10630872     0.10800
H1232       H  0.65293819  0.86663829  0.10333759     0.12800
H1233       H  0.70089970  0.87686533  0.10836567     0.09300
H1234       H  0.74550843  0.86889910  0.09194858     0.11400
H1235       H  0.72054192  0.79376324  0.06270544     0.08000
H1236       H  0.67693239  0.80120247  0.07889535     0.10700
C1237       C  0.27698377  0.92658982  0.15967449    -0.03900
C1238       C  0.28047969  0.90768066  0.14008254    -0.06500
C1239       C  0.30557790  0.89799349  0.13464610    -0.21600
C1240       C  0.32737597  0.90652983  0.14915200     0.24200
C1241       C  0.32366136  0.92521638  0.16894629    -0.19100
C1242       C  0.29879437  0.93508660  0.17411594    -0.09100
C1243       C  0.35400950  0.89713428  0.14227393    -0.19400
C1244       C  0.37369516  0.89622330  0.15984265    -0.24200
C1245       C  0.40104847  0.88945271  0.15285321     0.26200
C1246       C  0.41752990  0.87882693  0.17213570    -0.20900
C1247       C  0.44351854  0.87248524  0.16620641    -0.10600
C1248       C  0.45348665  0.87701159  0.14098177    -0.11100
C1249       C  0.43743402  0.88889253  0.12209187    -0.04100
C1250       C  0.41139992  0.89484685  0.12785685    -0.19200
H1251       H  0.26399616  0.90092511  0.12856053     0.09900
H1252       H  0.30802268  0.88397035  0.11898929     0.10000
H1253       H  0.34003313  0.93296764  0.17994946     0.09600
H1254       H  0.29672784  0.94970354  0.18930390     0.10800
H1255       H  0.35735519  0.89060907  0.12230236     0.10800
H1256       H  0.36961733  0.90009511  0.18036468     0.12800
H1257       H  0.41012654  0.87500442  0.19169268     0.09300
H1258       H  0.45568877  0.86354527  0.18107758     0.11400
H1259       H  0.44502867  0.89321014  0.10272062     0.08000
H1260       H  0.39960000  0.90402455  0.11285905     0.10700
C1261       C  0.45957548  0.83717032  0.10189510    -0.03900
C1262       C  0.45226142  0.84511603  0.07661701    -0.06500
C1263       C  0.42695390  0.84020184  0.06755874    -0.21600
C1264       C  0.40848853  0.82792243  0.08388826     0.24200
C1265       C  0.41631957  0.81830341  0.10843730    -0.19100
C1266       C  0.44183300  0.82268569  0.11726650    -0.09100
C1267       C  0.38094535  0.82676791  0.07530104    -0.19400
C1268       C  0.36088323  0.83235088  0.09155940    -0.24200
C1269       C  0.33334384  0.83457727  0.08249122     0.26200
C1270       C  0.31272516  0.83159819  0.10061548    -0.20900
C1271       C  0.28656392  0.83241656  0.09228130    -0.10600
C1272       C  0.28082889  0.83606383  0.06566611    -0.11100
C1273       C  0.30133485  0.84031246  0.04783115    -0.04100
C1274       C  0.32727151  0.83997358  0.05615297    -0.19200
H1275       H  0.46548360  0.85673512  0.06467189     0.09900
H1276       H  0.42125641  0.84758991  0.04848985     0.10000
H1277       H  0.40252003  0.80820528  0.12108447     0.09600
H1278       H  0.44718507  0.81649800  0.13685317     0.10800
H1279       H  0.37755049  0.82339361  0.05461396     0.10800
H1280       H  0.36479057  0.83572758  0.11221720     0.12800
H1281       H  0.31688581  0.82791148  0.12110663     0.09300
H1282       H  0.27098168  0.82881450  0.10628696     0.11400
H1283       H  0.29726558  0.84332354  0.02720005     0.08000
H1284       H  0.34236716  0.84377077  0.04173446     0.10700
C1285       C  0.51230168  0.82990224  0.07896889    -0.03900
C1286       C  0.50348958  0.80451231  0.07302206    -0.06500
C1287       C  0.50595604  0.79483717  0.04738113    -0.21600
C1288       C  0.51792014  0.81025038  0.02783843     0.24200
C1289       C  0.52709160  0.83527821  0.03404527    -0.19100
C1290       C  0.52376956  0.84519599  0.05913715    -0.09100
C1291       C  0.51910184  0.80233873  0.00010862    -0.19400
C1292       C  0.49692349  0.79863472  0.98658064    -0.24200
C1293       C  0.49549466  0.80963707  0.95995311     0.26200
C1294       C  0.48982804  0.83629240  0.95750322    -0.20900
C1295       C  0.49127205  0.84849742  0.93317883    -0.10600
C1296       C  0.49768053  0.83416608  0.91071350    -0.11100
C1297       C  0.50290641  0.80727814  0.91295888    -0.04100
C1298       C  0.50199512  0.79505174  0.93761812    -0.19200
H1299       H  0.49427638  0.79254470  0.08799006     0.09900
H1300       H  0.49845779  0.77555724  0.04274393     0.10000
H1301       H  0.53574760  0.84767609  0.01906893     0.09600
H1302       H  0.52970583  0.86516927  0.06298877     0.10800
H1303       H  0.53669297  0.80787115  0.98930109     0.10800
H1304       H  0.47856049  0.79626728  0.99716127     0.12800
H1305       H  0.48537858  0.84788974  0.97468210     0.09300
H1306       H  0.48825654  0.86941881  0.93200883     0.11400
H1307       H  0.50840291  0.79607386  0.89584036     0.08000
H1308       H  0.50685077  0.77452455  0.93936774     0.10700
C1309       C  0.73523854  0.06236381  0.84365568    -0.03900
C1310       C  0.73299069  0.08343712  0.86112946    -0.06500
C1311       C  0.70843989  0.09471778  0.86593692    -0.21600
C1312       C  0.68603850  0.08549690  0.85285808     0.24200
C1313       C  0.68840733  0.06418463  0.83573497    -0.19100
C1314       C  0.71266554  0.05276659  0.83123812    -0.09100
C1315       C  0.66000977  0.09697409  0.85839878    -0.19400
C1316       C  0.64078372  0.09716897  0.84031723    -0.24200
C1317       C  0.61333854  0.10418522  0.84636029     0.26200
C1318       C  0.59710179  0.11344775  0.82618325    -0.20900
C1319       C  0.57086357  0.11950128  0.83123129    -0.10600
C1320       C  0.56046562  0.11596043  0.85643230    -0.11100
C1321       C  0.57630962  0.10537424  0.87623058    -0.04100
C1322       C  0.60256787  0.09979608  0.87135623    -0.19200
H1323       H  0.75008611  0.09102462  0.87115226     0.09900
H1324       H  0.70693897  0.11069732  0.87970735     0.10000
H1325       H  0.67141492  0.05584198  0.82616793     0.09600
H1326       H  0.71370028  0.03638825  0.81786254     0.10800
H1327       H  0.65656842  0.10505585  0.87776319     0.10800
H1328       H  0.64520028  0.09168220  0.82023945     0.12800
H1329       H  0.60486177  0.11639000  0.80661864     0.09300
H1330       H  0.55884685  0.12749896  0.81570727     0.11400
H1331       H  0.56839084  0.10192777  0.89564867     0.08000
H1332       H  0.61421193  0.09161699  0.88704731     0.10700
C1333       C  0.73002428  0.15468544  0.93119611    -0.03900
C1334       C  0.72593713  0.16093200  0.90472961    -0.06500
C1335       C  0.70035374  0.16415425  0.89524548    -0.21600
C1336       C  0.67873805  0.16122700  0.91213615     0.24200
C1337       C  0.68301475  0.15325006  0.93815145    -0.19100
C1338       C  0.70837279  0.15031320  0.94759768    -0.09100
C1339       C  0.65184214  0.16567505  0.90223784    -0.19400
C1340       C  0.63221180  0.17348096  0.91804596    -0.24200
C1341       C  0.60458344  0.17156648  0.90998454     0.26200
C1342       C  0.58677237  0.15958875  0.92720327    -0.20900
C1343       C  0.56186404  0.15254594  0.91852899    -0.10600
C1344       C  0.55412525  0.15826130  0.89276993    -0.11100
C1345       C  0.57109743  0.17251627  0.87634518    -0.04100
C1346       C  0.59632921  0.17892482  0.88480365    -0.19200
H1347       H  0.74242066  0.16467913  0.89184230     0.09900
H1348       H  0.69746105  0.16972529  0.87496266     0.10000
H1349       H  0.66685020  0.14944763  0.95139629     0.09600
H1350       H  0.71112502  0.14533162  0.96806843     0.10800
H1351       H  0.64789467  0.16126270  0.88179138     0.10800
H1352       H  0.63604261  0.17788101  0.93849234     0.12800
H1353       H  0.59285601  0.15378913  0.94670117     0.09300
H1354       H  0.54939343  0.14100497  0.93130097     0.11400
H1355       H  0.56542609  0.17701995  0.85639501     0.08000
H1356       H  0.60969441  0.18860978  0.87138913     0.10700
C1357       C  0.46215468  0.10843795  0.84886202    -0.03900
C1358       C  0.44784152  0.12180542  0.82966661    -0.06500
C1359       C  0.42195913  0.11463401  0.82438495    -0.21600
C1360       C  0.40986272  0.09447600  0.83871982     0.24200
C1361       C  0.42478094  0.07997898  0.85672873    -0.19100
C1362       C  0.45089618  0.08675448  0.86154291    -0.09100
C1363       C  0.38175430  0.08883402  0.83435006    -0.19400
C1364       C  0.36525403  0.08202488  0.85390597    -0.24200
C1365       C  0.33729454  0.07532169  0.84922267     0.26200
C1366       C  0.31856786  0.07893532  0.86917276    -0.20900
C1367       C  0.29230057  0.07152116  0.86534156    -0.10600
C1368       C  0.28470920  0.05956777  0.84179541    -0.11100
C1369       C  0.30346859  0.05600053  0.82196490    -0.04100
C1370       C  0.32936279  0.06385871  0.82553889    -0.19200
H1371       H  0.45622632  0.13874135  0.81993091     0.09900
H1372       H  0.41091784  0.12575794  0.81011052     0.10000
H1373       H  0.41610915  0.06380991  0.86745051     0.09600
H1374       H  0.46171198  0.07635852  0.87652052     0.10800
H1375       H  0.37419682  0.09187252  0.81469996     0.10800
H1376       H  0.37231490  0.08183858  0.87398980     0.12800
H1377       H  0.32432264  0.08736755  0.88775862     0.09300
H1378       H  0.27825317  0.07415901  0.88104175     0.11400
H1379       H  0.29816969  0.04668734  0.80366459     0.08000
H1380       H  0.34330285  0.05996899  0.81003371     0.10700
C1381       C  0.45652968  0.14458365  0.89017509    -0.03900
C1382       C  0.44549010  0.12690948  0.90818494    -0.06500
C1383       C  0.41921410  0.12889359  0.91524474    -0.21600
C1384       C  0.40339521  0.14806362  0.90380135     0.24200
C1385       C  0.41445386  0.16602498  0.88600911    -0.19100
C1386       C  0.44099379  0.16437431  0.87936438    -0.09100
C1387       C  0.37580654  0.14982319  0.91200714    -0.19400
C1388       C  0.35606471  0.15474711  0.89532265    -0.24200
C1389       C  0.32906607  0.15755963  0.90538294     0.26200
C1390       C  0.30776602  0.14535700  0.89291176    -0.20900
C1391       C  0.28263890  0.14626231  0.90421319    -0.10600
C1392       C  0.27866557  0.15991084  0.92776461    -0.11100
C1393       C  0.29987951  0.17325251  0.93919813    -0.04100
C1394       C  0.32471067  0.17207224  0.92819596    -0.19200
H1395       H  0.45699550  0.11096443  0.91601054     0.09900
H1396       H  0.41101242  0.11497559  0.92908416     0.10000
H1397       H  0.40263216  0.18133251  0.87741351     0.09600
H1398       H  0.44919826  0.17786262  0.86511493     0.10800
H1399       H  0.37144041  0.14590589  0.93252433     0.10800
H1400       H  0.35965150  0.15589433  0.87435028     0.12800
H1401       H  0.31074391  0.13453415  0.87494965     0.09300
H1402       H  0.26655479  0.13609751  0.89483340     0.11400
H1403       H  0.29746992  0.18445008  0.95702742     0.08000
H1404       H  0.34065934  0.18234717  0.93771844     0.10700
C1405       C  0.51423815  0.08709372  0.83813462    -0.03900
C1406       C  0.50336243  0.08310088  0.81313069    -0.06500
C1407       C  0.50255455  0.05792692  0.80222853    -0.21600
C1408       C  0.51344515  0.03671070  0.81580439     0.24200
C1409       C  0.52502353  0.04101745  0.84040449    -0.19100
C1410       C  0.52520013  0.06582817  0.85150177    -0.09100
C1411       C  0.51036293  0.00953212  0.80623897    -0.19400
C1412       C  0.53005182  0.99248669  0.80923439    -0.24200
C1413       C  0.52492572  0.96525034  0.81720443     0.26200
C1414       C  0.53318528  0.95791990  0.84226036    -0.20900
C1415       C  0.52795301  0.93299426  0.85177171    -0.10600
C1416       C  0.51553891  0.91428506  0.83598354    -0.11100
C1417       C  0.50720392  0.92146831  0.81070360    -0.04100
C1418       C  0.51157229  0.94706739  0.80143998    -0.19200
H1419       H  0.49461331  0.09924528  0.80258076     0.09900
H1420       H  0.49316328  0.05494301  0.78345059     0.10000
H1421       H  0.53276125  0.02487277  0.85175226     0.09600
H1422       H  0.53289395  0.06820969  0.87112177     0.10800
H1423       H  0.49069012  0.00253826  0.80200821     0.10800
H1424       H  0.54933939  0.00018453  0.81409569     0.12800
H1425       H  0.54299212  0.97187393  0.85488411     0.09300
H1426       H  0.53331804  0.92837191  0.87175692     0.11400
H1427       H  0.49712079  0.90744469  0.79841633     0.08000
H1428       H  0.50482838  0.95258487  0.78210318     0.10700
C1429       C  0.54704181  0.09725160  0.14670664    -0.03900
C1430       C  0.56316834  0.10844131  0.16587936    -0.06500
C1431       C  0.58804246  0.09821702  0.17054075    -0.21600
C1432       C  0.59724502  0.07719176  0.15558863     0.24200
C1433       C  0.58037530  0.06478941  0.13778038    -0.19100
C1434       C  0.55518332  0.07454356  0.13366497    -0.09100
C1435       C  0.62465861  0.06881790  0.15857204    -0.19400
C1436       C  0.64062980  0.06519617  0.13784138    -0.24200
C1437       C  0.66844606  0.05787618  0.14146566     0.26200
C1438       C  0.68814503  0.06839791  0.12519983    -0.20900
C1439       C  0.71471911  0.06300657  0.13009672    -0.10600
C1440       C  0.72165999  0.04615985  0.15071727    -0.11100
C1441       C  0.70163753  0.03466756  0.16594466    -0.04100
C1442       C  0.67546635  0.04049607  0.16146632    -0.19200
H1443       H  0.55712593  0.12603001  0.17597685     0.09900
H1444       H  0.60071949  0.10773009  0.18463696     0.10000
H1445       H  0.58698125  0.04811699  0.12654114     0.09600
H1446       H  0.54291087  0.06578590  0.11874697     0.10800
H1447       H  0.63251474  0.06786669  0.17832625     0.10800
H1448       H  0.63357044  0.06917718  0.11815153     0.12800
H1449       H  0.68295726  0.08121554  0.10913078     0.09300
H1450       H  0.72967531  0.07176130  0.11776882     0.11400
H1451       H  0.70614518  0.02124827  0.18174415     0.08000
H1452       H  0.66068141  0.03131172  0.17370052     0.10700
C1453       C  0.55653588  0.14124385  0.11311956    -0.03900
C1454       C  0.57349014  0.12407253  0.10016949    -0.06500
C1455       C  0.60005171  0.12979612  0.09841196    -0.21600
C1456       C  0.60989198  0.15325306  0.10880238     0.24200
C1457       C  0.59262857  0.17132692  0.12001811    -0.19100
C1458       C  0.56604637  0.16519817  0.12248068    -0.09100
C1459       C  0.63775615  0.15992220  0.10572937    -0.19400
C1460       C  0.65651324  0.14162278  0.10707999    -0.24200
C1461       C  0.68268201  0.14607655  0.09568762     0.26200
C1462       C  0.68525969  0.16070443  0.07253161    -0.20900
C1463       C  0.70936182  0.16277555  0.06009125    -0.10600
C1464       C  0.73146502  0.15024831  0.07045125    -0.11100
C1465       C  0.72905627  0.13562989  0.09367093    -0.04100
C1466       C  0.70470147  0.13353842  0.10619404    -0.19200
H1467       H  0.56621497  0.10594783  0.09197128     0.09900
H1468       H  0.61280528  0.11607835  0.08855478     0.10000
H1469       H  0.59984045  0.18984598  0.12740338     0.09600
H1470       H  0.55302933  0.17875446  0.13222359     0.10800
H1471       H  0.64274921  0.17995331  0.10049921     0.10800
H1472       H  0.65194444  0.12224799  0.11467732     0.12800
H1473       H  0.66847058  0.16990794  0.06348254     0.09300
H1474       H  0.71058593  0.17415647  0.04219464     0.11400
H1475       H  0.74586766  0.12585949  0.10204829     0.08000
H1476       H  0.70304319  0.12225076  0.12409962     0.10700
C1477       C  0.45055922  0.11260870  0.13959587    -0.03900
C1478       C  0.44084036  0.11888405  0.16447142    -0.06500
C1479       C  0.41461387  0.11390234  0.17058325    -0.21600
C1480       C  0.39788335  0.10273582  0.15184529     0.24200
C1481       C  0.40797412  0.09588771  0.12714659    -0.19100
C1482       C  0.43408805  0.10084376  0.12109739    -0.09100
C1483       C  0.37053436  0.09672869  0.15916162    -0.19400
C1484       C  0.35128218  0.09398451  0.14140843    -0.24200
C1485       C  0.32494986  0.08425426  0.14855028     0.26200
C1486       C  0.30343289  0.09063315  0.13271991    -0.20900
C1487       C  0.27851167  0.08073390  0.13853736    -0.10600
C1488       C  0.27508873  0.06363851  0.15980009    -0.11100
C1489       C  0.29665252  0.05704604  0.17544098    -0.04100
C1490       C  0.32133142  0.06722451  0.16991260    -0.19200
H1491       H  0.45343973  0.12799264  0.17889579     0.09900
H1492       H  0.40731628  0.11893267  0.18987040     0.10000
H1493       H  0.39597567  0.08625730  0.11259726     0.09600
H1494       H  0.44149416  0.09563725  0.10191001     0.10800
H1495       H  0.36620546  0.09449039  0.17989929     0.10800
H1496       H  0.35478571  0.09898731  0.12099789     0.12800
H1497       H  0.30597267  0.10306328  0.11571496     0.09300
H1498       H  0.26216895  0.08575802  0.12601715     0.11400
H1499       H  0.29451531  0.04373171  0.19186840     0.08000
H1500       H  0.33761284  0.06097599  0.18190813     0.10700
C1501       C  0.45958498  0.15227430  0.10099975    -0.03900
C1502       C  0.45265887  0.14461978  0.07554770    -0.06500
C1503       C  0.42750285  0.14953424  0.06616171    -0.21600
C1504       C  0.40889380  0.16153551  0.08235141     0.24200
C1505       C  0.41648842  0.17119405  0.10692450    -0.19100
C1506       C  0.44185946  0.16686964  0.11605931    -0.09100
C1507       C  0.38138710  0.16218400  0.07375922    -0.19400
C1508       C  0.36152757  0.15533556  0.08988052    -0.24200
C1509       C  0.33399105  0.15288521  0.08088795     0.26200
C1510       C  0.31344046  0.15431049  0.09925446    -0.20900
C1511       C  0.28724828  0.15358114  0.09098872    -0.10600
C1512       C  0.28147338  0.15163191  0.06421880    -0.11100
C1513       C  0.30193230  0.14875501  0.04611363    -0.04100
C1514       C  0.32786052  0.14899532  0.05433042    -0.19200
H1515       H  0.46598242  0.13307307  0.06380817     0.09900
H1516       H  0.42197552  0.14220077  0.04703997     0.10000
H1517       H  0.40253604  0.18108685  0.11942937     0.09600
H1518       H  0.44696337  0.17286963  0.13575157     0.10800
H1519       H  0.37793931  0.16630843  0.05321530     0.10800
H1520       H  0.36562057  0.15121858  0.11037833     0.12800
H1521       H  0.31766879  0.15672486  0.11990853     0.09300
H1522       H  0.27168875  0.15595114  0.10523952     0.11400
H1523       H  0.29784396  0.14693084  0.02535477     0.08000
H1524       H  0.34289539  0.14634987  0.03963900     0.10700
C1525       C  0.49335592  0.07843850  0.15405142    -0.03900
C1526       C  0.50180905  0.07171379  0.17941980    -0.06500
C1527       C  0.49748936  0.04633400  0.18918737    -0.21600
C1528       C  0.48401449  0.02787561  0.17388782     0.24200
C1529       C  0.47547758  0.03478847  0.14877420    -0.19100
C1530       C  0.48062358  0.05955635  0.13874801    -0.09100
C1531       C  0.47924593  0.00072168  0.18237953    -0.19400
C1532       C  0.49914797  0.98447851  0.18773711    -0.24200
C1533       C  0.49776665  0.95694293  0.17883366     0.26200
C1534       C  0.48748470  0.95157776  0.15388390    -0.20900
C1535       C  0.48870795  0.92656822  0.14351988    -0.10600
C1536       C  0.49968859  0.90603106  0.15794670    -0.11100
C1537       C  0.50969568  0.91106481  0.18311388    -0.04100
C1538       C  0.50910586  0.93655029  0.19334435    -0.19200
H1539       H  0.51193861  0.08594996  0.19141758     0.09900
H1540       H  0.50439638  0.04118844  0.20857306     0.10000
H1541       H  0.46553232  0.02062224  0.13649738     0.09600
H1542       H  0.47489840  0.06393219  0.11880097     0.10800
H1543       H  0.46062020  0.99220415  0.17643706     0.10800
H1544       H  0.51815154  0.99226167  0.19337094     0.12800
H1545       H  0.47963118  0.96705350  0.14172051     0.09300
H1546       H  0.48186294  0.92342343  0.12369085     0.11400
H1547       H  0.51861748  0.89551165  0.19439120     0.08000
H1548       H  0.51766179  0.94040247  0.21235813     0.10700
C1549       C  0.50239678  0.16600101  0.91622050    -0.03900
C1550       C  0.50856872  0.19274418  0.91842626    -0.06500
C1551       C  0.50800311  0.20494405  0.94308597    -0.21600
C1552       C  0.50085795  0.19048404  0.96544274     0.24200
C1553       C  0.49451972  0.16395774  0.96303414    -0.19100
C1554       C  0.49568969  0.15176670  0.93877870    -0.09100
C1555       C  0.50181759  0.20140513  0.99210807    -0.19400
C1556       C  0.52355639  0.19724255  0.00619125    -0.24200
C1557       C  0.52139624  0.18641988  0.03297170     0.26200
C1558       C  0.53127437  0.16128556  0.03718546    -0.20900
C1559       C  0.52679975  0.14843712  0.06082161    -0.10600
C1560       C  0.51345259  0.16085807  0.08137075    -0.11100
C1561       C  0.50409498  0.18643409  0.07750040    -0.04100
C1562       C  0.50765760  0.19900855  0.05321817    -0.19200
H1563       H  0.51442614  0.20385457  0.90127504     0.09900
H1564       H  0.51343025  0.22536272  0.94478966     0.10000
H1565       H  0.48964858  0.15240922  0.98022770     0.09600
H1566       H  0.49227908  0.13090083  0.93775197     0.10800
H1567       H  0.48317992  0.20289668  0.00233340     0.10800
H1568       H  0.54153472  0.19283597  0.99559343     0.12800
H1569       H  0.54131864  0.15099940  0.02159118     0.09300
H1570       H  0.53325098  0.12839540  0.06284595     0.11400
H1571       H  0.49355789  0.19633935  0.09298797     0.08000
H1572       H  0.49958430  0.21832324  0.05014479     0.10700
C1573       C  0.89215276  0.83064114  0.55077264    -0.03900
C1574       C  0.90718745  0.84741648  0.56646497    -0.06500
C1575       C  0.91106194  0.84172285  0.59280822    -0.21600
C1576       C  0.90047120  0.81879241  0.60373235     0.24200
C1577       C  0.88699667  0.80106679  0.58765640    -0.19100
C1578       C  0.88254975  0.80712527  0.56127654    -0.09100
C1579       C  0.90452857  0.81288096  0.63166337    -0.19400
C1580       C  0.90257361  0.83159488  0.65002389    -0.24200
C1581       C  0.91246271  0.82803750  0.67694823     0.26200
C1582       C  0.90183694  0.84273441  0.69758408    -0.20900
C1583       C  0.91338246  0.84222659  0.72246516    -0.10600
C1584       C  0.93582671  0.82710053  0.72678496    -0.11100
C1585       C  0.94592875  0.81187101  0.70625904    -0.04100
C1586       C  0.93442974  0.81234368  0.68163459    -0.19200
H1587       H  0.91489843  0.86555357  0.55852671     0.09900
H1588       H  0.92226745  0.85526859  0.60467047     0.10000
H1589       H  0.87913966  0.78306375  0.59575541     0.09600
H1590       H  0.87084462  0.79406028  0.54936189     0.10800
H1591       H  0.90980994  0.79302855  0.63705282     0.10800
H1592       H  0.89480706  0.85066272  0.64474007     0.12800
H1593       H  0.88475250  0.85473338  0.69432494     0.09300
H1594       H  0.90515555  0.85398513  0.73804853     0.11400
H1595       H  0.96312496  0.79984428  0.70903012     0.08000
H1596       H  0.94354343  0.80128920  0.66603859     0.10700
C1597       C  0.85538594  0.87214784  0.54785091    -0.03900
C1598       C  0.83714388  0.85757775  0.56250909    -0.06500
C1599       C  0.83163977  0.86429806  0.58850492    -0.21600
C1600       C  0.84464871  0.88538969  0.60038358     0.24200
C1601       C  0.86178884  0.90085905  0.58520859    -0.19100
C1602       C  0.86701724  0.89434714  0.55912388    -0.09100
C1603       C  0.83980983  0.89107059  0.62849195    -0.19400
C1604       C  0.85863120  0.90038986  0.64451324    -0.24200
C1605       C  0.85384774  0.90747851  0.67237086     0.26200
C1606       C  0.87489364  0.90769834  0.69014503    -0.20900
C1607       C  0.87128307  0.91593722  0.71610878    -0.10600
C1608       C  0.84678867  0.92514329  0.72431461    -0.11100
C1609       C  0.82576487  0.92491759  0.70661677    -0.04100
C1610       C  0.82913320  0.91594404  0.68101437    -0.19200
H1611       H  0.82824285  0.84019860  0.55422981     0.09900
H1612       H  0.81810101  0.85231233  0.59971703     0.10000
H1613       H  0.87150955  0.91771426  0.59361041     0.09600
H1614       H  0.88145223  0.90559834  0.54829267     0.10800
H1615       H  0.82061909  0.88623626  0.63638534     0.10800
H1616       H  0.87849244  0.90252285  0.63707720     0.12800
H1617       H  0.89423450  0.90172523  0.68382657     0.09300
H1618       H  0.88784916  0.91632671  0.72934073     0.11400
H1619       H  0.80672742  0.93217293  0.71250348     0.08000
H1620       H  0.81263147  0.91683229  0.66777475     0.10700
C1621       C  0.86723513  0.87521405  0.44983440    -0.03900
C1622       C  0.84205230  0.87568970  0.43899051    -0.06500
C1623       C  0.83804116  0.88647860  0.41411041    -0.21600
C1624       C  0.85920120  0.89647900  0.39951869     0.24200
C1625       C  0.88431229  0.89671156  0.41074928    -0.19100
C1626       C  0.88818051  0.88651436  0.43586604    -0.09100
C1627       C  0.85429657  0.90742607  0.37308806    -0.19400
C1628       C  0.87180663  0.90607448  0.35334926    -0.24200
C1629       C  0.86609886  0.91664372  0.32688762     0.26200
C1630       C  0.87614059  0.90406198  0.30460728    -0.20900
C1631       C  0.86997122  0.91312284  0.27943514    -0.10600
C1632       C  0.85398259  0.93518326  0.27624488    -0.11100
C1633       C  0.84486088  0.94836467  0.29858962    -0.04100
C1634       C  0.85083929  0.93921368  0.32362985    -0.19200
H1635       H  0.82563332  0.86736164  0.44963422     0.09900
H1636       H  0.81845015  0.88650680  0.40598248     0.10000
H1637       H  0.90084309  0.90511290  0.40035189     0.09600
H1638       H  0.90759176  0.88717957  0.44435237     0.10800
H1639       H  0.83497319  0.91543629  0.36935158     0.10800
H1640       H  0.89004348  0.89556362  0.35616087     0.12800
H1641       H  0.88823601  0.88685344  0.30668430     0.09300
H1642       H  0.87741002  0.90271149  0.26254349     0.11400
H1643       H  0.83281869  0.96566622  0.29676287     0.08000
H1644       H  0.84356499  0.94988868  0.34042058     0.10700
C1645       C  0.89787463  0.82836544  0.45212901    -0.03900
C1646       C  0.88017498  0.81583465  0.43528176    -0.06500
C1647       C  0.88629307  0.81270335  0.40880492    -0.21600
C1648       C  0.90992052  0.82256594  0.39876778     0.24200
C1649       C  0.92874098  0.83275285  0.41611735    -0.19100
C1650       C  0.92282962  0.83536617  0.44277544    -0.09100
C1651       C  0.91353328  0.82356206  0.37002507    -0.19400
C1652       C  0.92343380  0.84481763  0.35785477    -0.24200
C1653       C  0.92615610  0.84665606  0.32895750     0.26200
C1654       C  0.94717005  0.86102295  0.31847128    -0.20900
C1655       C  0.95245036  0.86027549  0.29160455    -0.10600
C1656       C  0.93624602  0.84594232  0.27469705    -0.11100
C1657       C  0.91390270  0.83343978  0.28476010    -0.04100
C1658       C  0.90887259  0.83374498  0.31175385    -0.19200
H1659       H  0.86081529  0.81042118  0.44220031     0.09900
H1660       H  0.87171658  0.80445198  0.39578300     0.10000
H1661       H  0.94744439  0.83979722  0.40887961     0.09600
H1662       H  0.93669454  0.84511553  0.45552862     0.10800
H1663       H  0.90608406  0.80725265  0.35863574     0.10800
H1664       H  0.93070585  0.86106388  0.36950353     0.12800
H1665       H  0.96051092  0.87142505  0.33127654     0.09300
H1666       H  0.97006641  0.86963262  0.28419675     0.11400
H1667       H  0.90144721  0.82190800  0.27204428     0.08000
H1668       H  0.89191044  0.82329203  0.31913887     0.10700
C1669       C  0.89987027  0.14859767  0.54819940    -0.03900
C1670       C  0.89101324  0.17205797  0.55919402    -0.06500
C1671       C  0.89643678  0.17776940  0.58544644    -0.21600
C1672       C  0.91035027  0.15985743  0.60093697     0.24200
C1673       C  0.92053768  0.13718568  0.58933643    -0.19100
C1674       C  0.91547100  0.13171635  0.56314576    -0.09100
C1675       C  0.91476177  0.16527524  0.62899038    -0.19400
C1676       C  0.91545543  0.14597156  0.64699493    -0.24200
C1677       C  0.92342819  0.15026161  0.67452274     0.26200
C1678       C  0.91574198  0.13227236  0.69398175    -0.20900
C1679       C  0.92458953  0.13493656  0.71982033    -0.10600
C1680       C  0.94204138  0.15515932  0.72619461    -0.11100
C1681       C  0.94977006  0.17304809  0.70668576    -0.04100
C1682       C  0.94053774  0.17071802  0.68119483    -0.19200
H1683       H  0.87915333  0.18537597  0.54776281     0.09900
H1684       H  0.88896722  0.19565777  0.59392770     0.10000
H1685       H  0.93231475  0.12360331  0.60052234     0.09600
H1686       H  0.92296183  0.11382342  0.55469315     0.10800
H1687       H  0.91704020  0.18554817  0.63488191     0.10800
H1688       H  0.91031368  0.12613668  0.64126921     0.12800
H1689       H  0.90333714  0.11584713  0.68902561     0.09300
H1690       H  0.91859632  0.12075709  0.73447902     0.11400
H1691       H  0.96331668  0.18881231  0.71102738     0.08000
H1692       H  0.94773981  0.18437532  0.66661401     0.10700
C1693       C  0.86601662  0.10389643  0.54366266    -0.03900
C1694       C  0.84935622  0.11626047  0.56165307    -0.06500
C1695       C  0.84533453  0.10553121  0.58657140    -0.21600
C1696       C  0.85786588  0.08215009  0.59378984     0.24200
C1697       C  0.87306850  0.06893958  0.57512441    -0.19100
C1698       C  0.87742537  0.07988328  0.55039754    -0.09100
C1699       C  0.85600003  0.07118798  0.62065975    -0.19400
C1700       C  0.85339723  0.08622020  0.64223115    -0.24200
C1701       C  0.85292061  0.07579558  0.66956640     0.26200
C1702       C  0.85431280  0.09344025  0.69069887    -0.20900
C1703       C  0.85338575  0.08447812  0.71672182    -0.10600
C1704       C  0.85029498  0.05772184  0.72196166    -0.11100
C1705       C  0.84912794  0.04011148  0.70092597    -0.04100
C1706       C  0.85041951  0.04892961  0.67511057    -0.19200
H1707       H  0.84044366  0.13483453  0.55677381     0.09900
H1708       H  0.83277535  0.11574009  0.60021854     0.10000
H1709       H  0.88268107  0.05075753  0.58014551     0.09600
H1710       H  0.89075132  0.07027729  0.53701839     0.10800
H1711       H  0.85906796  0.05033171  0.62248632     0.10800
H1712       H  0.85257656  0.10731909  0.63990679     0.12800
H1713       H  0.85580092  0.11426991  0.68705355     0.09300
H1714       H  0.85393505  0.09847937  0.73260985     0.11400
H1715       H  0.84659962  0.01934163  0.70443352     0.08000
H1716       H  0.84859737  0.03447201  0.65984509     0.10700
C1717       C  0.90540005  0.15451439  0.45003560    -0.03900
C1718       C  0.93083302  0.14657750  0.44333858    -0.06500
C1719       C  0.93957949  0.14886044  0.41750957    -0.21600
C1720       C  0.92285354  0.15872541  0.39813856     0.24200
C1721       C  0.89848331  0.16916621  0.40542760    -0.19100
C1722       C  0.88985130  0.16717037  0.43131590    -0.09100
C1723       C  0.93061103  0.15637627  0.37039454    -0.19400
C1724       C  0.91323411  0.15030528  0.35149720    -0.24200
C1725       C  0.92093775  0.14724012  0.32372459     0.26200
C1726       C  0.90299099  0.15375784  0.30393124    -0.20900
C1727       C  0.91088908  0.15421938  0.27763592    -0.10600
C1728       C  0.93682617  0.14819621  0.27107002    -0.11100
C1729       C  0.95410070  0.13965743  0.29057716    -0.04100
C1730       C  0.94615125  0.13884521  0.31666838    -0.19200
H1731       H  0.94295263  0.13653538  0.45752988     0.09900
H1732       H  0.95859230  0.14106787  0.41229017     0.10000
H1733       H  0.88563233  0.17776177  0.39094773     0.09600
H1734       H  0.87020890  0.17341250  0.43626784     0.10800
H1735       H  0.95131022  0.15826684  0.36581071     0.10800
H1736       H  0.89256972  0.14839017  0.35632387     0.12800
H1737       H  0.88329060  0.15979033  0.30894592     0.09300
H1738       H  0.89740276  0.16106118  0.26278610     0.11400
H1739       H  0.97416281  0.13474429  0.28572760     0.08000
H1740       H  0.96006986  0.13243992  0.33128657     0.10700
C1741       C  0.84334661  0.06552176  0.26881586    -0.03900
C1742       C  0.86641254  0.08011175  0.27226176    -0.06500
C1743       C  0.87362117  0.08858429  0.29737331    -0.21600
C1744       C  0.85751588  0.08322463  0.31916054     0.24200
C1745       C  0.83423194  0.06894063  0.31538734    -0.19100
C1746       C  0.82727026  0.06026095  0.29053199    -0.09100
C1747       C  0.86603655  0.09120900  0.34580660    -0.19400
C1748       C  0.84889547  0.09473499  0.36563555    -0.24200
C1749       C  0.85648520  0.10055486  0.39306570     0.26200
C1750       C  0.83743120  0.11076420  0.41009332    -0.20900
C1751       C  0.84363589  0.11665209  0.43608203    -0.10600
C1752       C  0.86897289  0.11226990  0.44549152    -0.11100
C1753       C  0.88771176  0.10083802  0.42895056    -0.04100
C1754       C  0.88159887  0.09510744  0.40293058    -0.19200
H1755       H  0.87932726  0.08399235  0.25582159     0.09900
H1756       H  0.89194748  0.09899795  0.29985175     0.10000
H1757       H  0.82175936  0.06344036  0.33166586     0.09600
H1758       H  0.80947817  0.04883775  0.28839517     0.10800
H1759       H  0.88680604  0.09452995  0.34889007     0.10800
H1760       H  0.82804543  0.09394354  0.36160759     0.12800
H1761       H  0.81780013  0.11467198  0.40311779     0.09300
H1762       H  0.82894442  0.12537601  0.44862684     0.11400
H1763       H  0.90728988  0.09696680  0.43604723     0.08000
H1764       H  0.89654133  0.08632205  0.39079639     0.10700
C1765       C  0.86023670  0.08015235  0.49152336    -0.03900
C1766       C  0.87839503  0.06272846  0.48075495    -0.06500
C1767       C  0.87206391  0.03655992  0.47743952    -0.21600
C1768       C  0.84778720  0.02680571  0.48577274     0.24200
C1769       C  0.82963213  0.04386995  0.49745731    -0.19100
C1770       C  0.83576386  0.07060991  0.50008212    -0.09100
C1771       C  0.84307157  0.99860343  0.48174327    -0.19400
C1772       C  0.83258443  0.98255625  0.49986965    -0.24200
C1773       C  0.83906036  0.95429538  0.49916051     0.26200
C1774       C  0.82034374  0.93496541  0.50522636    -0.20900
C1775       C  0.82723395  0.90838410  0.50458893    -0.10600
C1776       C  0.85298203  0.90110328  0.49822651    -0.11100
C1777       C  0.87167270  0.92047328  0.49281032    -0.04100
C1778       C  0.86486077  0.94670411  0.49331228    -0.19200
H1779       H  0.89772330  0.06944741  0.47500485     0.09900
H1780       H  0.88651265  0.02368970  0.46881369     0.10000
H1781       H  0.81076288  0.03667264  0.50407796     0.09600
H1782       H  0.82165790  0.08373425  0.50883242     0.10800
H1783       H  0.85316618  0.98987373  0.46514249     0.10800
H1784       H  0.82213878  0.99030875  0.51668820     0.12800
H1785       H  0.80047696  0.94042924  0.51022073     0.09300
H1786       H  0.81270713  0.89358909  0.50925044     0.11400
H1787       H  0.89180692  0.91521538  0.48864457     0.08000
H1788       H  0.88000909  0.96115015  0.48960301     0.10700
C1789       C  0.14715813  0.12222328  0.55402994    -0.03900
C1790       C  0.17213476  0.12662131  0.56451840    -0.06500
C1791       C  0.17755109  0.11954549  0.59048268    -0.21600
C1792       C  0.15802942  0.10818296  0.60640154     0.24200
C1793       C  0.13333140  0.10290244  0.59541959    -0.19100
C1794       C  0.12803337  0.10975793  0.56949663    -0.09100
C1795       C  0.16450105  0.10062433  0.63378315    -0.19400
C1796       C  0.14634834  0.09698855  0.65278598    -0.24200
C1797       C  0.15273640  0.08648738  0.67925386     0.26200
C1798       C  0.13531262  0.09052180  0.70028091    -0.20900
C1799       C  0.14050498  0.07998751  0.72517885    -0.10600
C1800       C  0.16283108  0.06455929  0.72915984    -0.11100
C1801       C  0.17991380  0.06015279  0.70804334    -0.04100
C1802       C  0.17503350  0.07100582  0.68346568    -0.19200
H1803       H  0.18717506  0.13607279  0.55281119     0.09900
H1804       H  0.19691593  0.12332594  0.59829698     0.10000
H1805       H  0.11810971  0.09318344  0.60660011     0.09600
H1806       H  0.10877591  0.10575138  0.56158322     0.10800
H1807       H  0.18510514  0.09829990  0.63837398     0.10800
H1808       H  0.12604153  0.10191163  0.64900233     0.12800
H1809       H  0.11757661  0.10166894  0.69738359     0.09300
H1810       H  0.12679802  0.08330097  0.74105174     0.11400
H1811       H  0.19717953  0.04814930  0.71050021     0.08000
H1812       H  0.18842265  0.06643672  0.66769307     0.10700
C1813       C  0.10915566  0.16284209  0.54887976    -0.03900
C1814       C  0.08365621  0.15413871  0.55465529    -0.06500
C1815       C  0.07389418  0.15589700  0.58018479    -0.21600
C1816       C  0.08966471  0.16592470  0.60031748     0.24200
C1817       C  0.11419526  0.17686739  0.59401531    -0.19100
C1818       C  0.12378701  0.17550291  0.56838494    -0.09100
C1819       C  0.08051449  0.16364725  0.62777973    -0.19400
C1820       C  0.09684828  0.15764566  0.64769045    -0.24200
C1821       C  0.08812975  0.15401259  0.67534588     0.26200
C1822       C  0.10672504  0.15550444  0.69566180    -0.20900
C1823       C  0.09888696  0.15424570  0.72204082    -0.10600
C1824       C  0.07227296  0.15164266  0.72835206    -0.11100
C1825       C  0.05396484  0.14844757  0.70810711    -0.04100
C1826       C  0.06176203  0.14933409  0.68194263    -0.19200
H1827       H  0.07219358  0.14403524  0.53994760     0.09900
H1828       H  0.05476897  0.14771009  0.58457782     0.10000
H1829       H  0.12635401  0.18554855  0.60904771     0.09600
H1830       H  0.14347869  0.18233925  0.56422768     0.10800
H1831       H  0.05963870  0.16553246  0.63109777     0.10800
H1832       H  0.11764324  0.15555676  0.64364230     0.12800
H1833       H  0.12725605  0.15855852  0.69112144     0.09300
H1834       H  0.11330780  0.15694472  0.73734522     0.11400
H1835       H  0.03330449  0.14619071  0.71255973     0.08000
H1836       H  0.04687100  0.14676248  0.66714490     0.10700
C1837       C  0.11672776  0.15695935  0.45059583    -0.03900
C1838       C  0.10097341  0.13913097  0.43689952    -0.06500
C1839       C  0.09700115  0.14206905  0.41017061    -0.21600
C1840       C  0.10884940  0.16290928  0.39658543     0.24200
C1841       C  0.12315940  0.18176484  0.41058735    -0.19100
C1842       C  0.12720596  0.17874430  0.43752719    -0.09100
C1843       C  0.10526735  0.16598022  0.36808843    -0.19400
C1844       C  0.10051186  0.14552112  0.35218807    -0.24200
C1845       C  0.09127394  0.14881175  0.32498280     0.26200
C1846       C  0.09377052  0.12810373  0.30708941    -0.20900
C1847       C  0.08371421  0.13038204  0.28169140    -0.10600
C1848       C  0.07003970  0.15296280  0.27448415    -0.11100
C1849       C  0.06716836  0.17339887  0.29247766    -0.04100
C1850       C  0.07773231  0.17144327  0.31740400    -0.19200
H1851       H  0.09284854  0.12213296  0.44675175     0.09900
H1852       H  0.08482154  0.12786167  0.40023318     0.10000
H1853       H  0.13192801  0.19830543  0.40051219     0.09600
H1854       H  0.13957934  0.19252699  0.44785969     0.10800
H1855       H  0.10621283  0.18568711  0.36018165     0.10800
H1856       H  0.10256787  0.12568005  0.35953860     0.12800
H1857       H  0.10308546  0.11004654  0.31292821     0.09300
H1858       H  0.08572673  0.11425568  0.26811067     0.11400
H1859       H  0.05652287  0.19096314  0.28732085     0.08000
H1860       H  0.07423958  0.18731853  0.33091497     0.10700
C1861       C  0.15198220  0.11456679  0.45548529    -0.03900
C1862       C  0.14025460  0.09053910  0.44911342    -0.06500
C1863       C  0.14294102  0.08007795  0.42399973    -0.21600
C1864       C  0.15682762  0.09365712  0.40442526     0.24200
C1865       C  0.16961932  0.11716651  0.41105373    -0.19100
C1866       C  0.16737029  0.12739187  0.43644615    -0.09100
C1867       C  0.15764539  0.08223755  0.37763464    -0.19400
C1868       C  0.16154528  0.09611191  0.35539198    -0.24200
C1869       C  0.16172628  0.08367924  0.32893668     0.26200
C1870       C  0.15571474  0.09863396  0.30655569    -0.20900
C1871       C  0.15577305  0.08726968  0.28149054    -0.10600
C1872       C  0.16275475  0.06092687  0.27832718    -0.11100
C1873       C  0.16899991  0.04610770  0.30068512    -0.04100
C1874       C  0.16855295  0.05727575  0.32559619    -0.19200
H1875       H  0.12764782  0.08062963  0.46307063     0.09900
H1876       H  0.13309639  0.06182573  0.41951338     0.10000
H1877       H  0.18109919  0.12781252  0.39668381     0.09600
H1878       H  0.17637146  0.14608704  0.44084944     0.10800
H1879       H  0.15311683  0.06153713  0.37621848     0.10800
H1880       H  0.16344897  0.11724421  0.35638316     0.12800
H1881       H  0.15094151  0.11915626  0.30849124     0.09300
H1882       H  0.15117856  0.09924883  0.26459157     0.11400
H1883       H  0.17473616  0.02581201  0.29891776     0.08000
H1884       H  0.17435563  0.04525283  0.34203995     0.10700
C1885       C  0.09047564  0.17824934  0.49685594    -0.03900
C1886       C  0.06805910  0.16770760  0.48492775    -0.06500
C1887       C  0.04437869  0.18104424  0.48534020    -0.21600
C1888       C  0.04203362  0.20471575  0.49898436     0.24200
C1889       C  0.06439318  0.21563597  0.51073174    -0.19100
C1890       C  0.08862794  0.20280034  0.50913738    -0.09100
C1891       C  0.01550087  0.21413191  0.50582024    -0.19400
C1892       C  0.99571143  0.21255447  0.48852506    -0.24200
C1893       C  0.97029826  0.20090129  0.49632363     0.26200
C1894       C  0.94660588  0.21059428  0.48641240    -0.20900
C1895       C  0.92337755  0.19605774  0.48931969    -0.10600
C1896       C  0.92385581  0.17120445  0.50123834    -0.11100
C1897       C  0.94749715  0.16198686  0.51164631    -0.04100
C1898       C  0.97034846  0.17678968  0.50954917    -0.19200
H1899       H  0.06828800  0.14820374  0.47685993     0.09900
H1900       H  0.02729133  0.17153681  0.47707498     0.10000
H1901       H  0.06286445  0.23350486  0.52198079     0.09600
H1902       H  0.10551123  0.21115821  0.51889252     0.10800
H1903       H  0.01096380  0.21519972  0.52661486     0.10800
H1904       H  0.00013302  0.21242638  0.46767571     0.12800
H1905       H  0.94628786  0.22884297  0.47559664     0.09300
H1906       H  0.90540851  0.20337675  0.48082208     0.11400
H1907       H  0.94867692  0.14251189  0.51991694     0.08000
H1908       H  0.98852671  0.16840243  0.51648194     0.10700
C1909       C  0.10852281  0.83817533  0.54898739    -0.03900
C1910       C  0.08263688  0.84511844  0.55498190    -0.06500
C1911       C  0.07339558  0.84284474  0.58065916    -0.21600
C1912       C  0.09015858  0.83429712  0.60064978     0.24200
C1913       C  0.11541611  0.82554418  0.59421510    -0.19100
C1914       C  0.12446744  0.82736510  0.56848854    -0.09100
C1915       C  0.08121566  0.83579644  0.62811559    -0.19400
C1916       C  0.09750057  0.84235271  0.64781178    -0.24200
C1917       C  0.08862330  0.84468719  0.67532470     0.26200
C1918       C  0.10647034  0.83981692  0.69567391    -0.20900
C1919       C  0.09802345  0.83942383  0.72178338    -0.10600
C1920       C  0.07156221  0.84363215  0.72764470    -0.11100
C1921       C  0.05410839  0.85015977  0.70753160    -0.04100
C1922       C  0.06260422  0.85107294  0.68160817    -0.19200
H1923       H  0.07020560  0.85379088  0.54016254     0.09900
H1924       H  0.05373771  0.84934830  0.58521729     0.10000
H1925       H  0.12842934  0.81801662  0.60913812     0.09600
H1926       H  0.14450470  0.82199408  0.56408586     0.10800
H1927       H  0.06049681  0.83268033  0.63182054     0.10800
H1928       H  0.11819244  0.84550555  0.64382969     0.12800
H1929       H  0.12663489  0.83498338  0.69125317     0.09300
H1930       H  0.11166307  0.83403885  0.73709171     0.11400
H1931       H  0.03360802  0.85362247  0.71182259     0.08000
H1932       H  0.04858242  0.85615036  0.66658888     0.10700
C1933       C  0.15909302  0.93213040  0.72631169    -0.03900
C1934       C  0.15625686  0.90520581  0.72200119    -0.06500
C1935       C  0.15387119  0.89564805  0.69641054    -0.21600
C1936       C  0.15349168  0.91288073  0.67491793     0.24200
C1937       C  0.15543975  0.93992203  0.67946491    -0.19100
C1938       C  0.15831279  0.94939540  0.70489012    -0.09100
C1939       C  0.15281019  0.90217135  0.64793615    -0.19400
C1940       C  0.14280172  0.91550239  0.62754184    -0.24200
C1941       C  0.14242797  0.90492425  0.60060430     0.26200
C1942       C  0.12085332  0.91027430  0.58454908    -0.20900
C1943       C  0.11936674  0.89971031  0.55941169    -0.10600
C1944       C  0.13975283  0.88414407  0.54972881    -0.11100
C1945       C  0.16199110  0.87984482  0.56518758    -0.04100
C1946       C  0.16327970  0.89003057  0.59058096    -0.19200
H1947       H  0.15718546  0.89153263  0.73821914     0.09900
H1948       H  0.15283829  0.87474868  0.69332710     0.10000
H1949       H  0.15595032  0.95377537  0.66340255     0.09600
H1950       H  0.16063338  0.97027005  0.70775345     0.10800
H1951       H  0.16002104  0.88243210  0.64492482     0.10800
H1952       H  0.13300861  0.93401839  0.63085966     0.12800
H1953       H  0.10470630  0.92189128  0.59182720     0.09300
H1954       H  0.10194812  0.90294796  0.54778858     0.11400
H1955       H  0.17781998  0.86778188  0.55795527     0.08000
H1956       H  0.18046686  0.88620896  0.60236241     0.10700
C1957       C  0.07233796  0.82720610  0.27531068    -0.03900
C1958       C  0.06141946  0.81330897  0.29652128    -0.06500
C1959       C  0.07343583  0.81352354  0.32096206    -0.21600
C1960       C  0.09664584  0.82773299  0.32480570     0.24200
C1961       C  0.10801816  0.84109215  0.30352574    -0.19100
C1962       C  0.09603578  0.84074649  0.27883285    -0.09100
C1963       C  0.10704016  0.83158493  0.35152041    -0.19400
C1964       C  0.10523910  0.81320835  0.37038202    -0.24200
C1965       C  0.10942055  0.82002623  0.39814103     0.26200
C1966       C  0.12446051  0.80400183  0.41462349    -0.20900
C1967       C  0.12899148  0.81136677  0.44070823    -0.10600
C1968       C  0.11795752  0.83445294  0.45053368    -0.11100
C1969       C  0.10170094  0.84950758  0.43435887    -0.04100
C1970       C  0.09759320  0.84248190  0.40840634    -0.19200
H1971       H  0.04324359  0.80252380  0.29440552     0.09900
H1972       H  0.06386106  0.80353279  0.33711337     0.10000
H1973       H  0.12604356  0.85197161  0.30614119     0.09600
H1974       H  0.10496166  0.85142115  0.26274745     0.10800
H1975       H  0.11493443  0.85076734  0.35629851     0.10800
H1976       H  0.09959339  0.79328516  0.36558627     0.12800
H1977       H  0.13339864  0.78638465  0.40705726     0.09300
H1978       H  0.14170902  0.79962239  0.45291323     0.11400
H1979       H  0.09292854  0.86732453  0.44164328     0.08000
H1980       H  0.08528242  0.85471905  0.39625136     0.10700
C1981       C  0.15253066  0.87824571  0.45262625    -0.03900
C1982       C  0.17321370  0.86543774  0.43999885    -0.06500
C1983       C  0.17949622  0.87163433  0.41406872    -0.21600
C1984       C  0.16478319  0.89028722  0.40038717     0.24200
C1985       C  0.14507815  0.90417779  0.41357309    -0.19100
C1986       C  0.13903349  0.89820059  0.43953476    -0.09100
C1987       C  0.17023188  0.89489154  0.37236204    -0.19400
C1988       C  0.15110042  0.90070665  0.35521845    -0.24200
C1989       C  0.15618489  0.90722315  0.32739039     0.26200
C1990       C  0.13552372  0.90576411  0.30925081    -0.20900
C1991       C  0.13921416  0.91388785  0.28327802    -0.10600
C1992       C  0.16338270  0.92441268  0.27552631    -0.11100
C1993       C  0.18410331  0.92551761  0.29346543    -0.04100
C1994       C  0.18064117  0.91692287  0.31910081    -0.19200
H1995       H  0.18356909  0.84977267  0.44980188     0.09900
H1996       H  0.19498779  0.86099259  0.40429570     0.10000
H1997       H  0.13395197  0.91922610  0.40368486     0.09600
H1998       H  0.12262494  0.90787482  0.44875687     0.10800
H1999       H  0.19020262  0.89210243  0.36565239     0.10800
H2000       H  0.13083682  0.90061652  0.36179628     0.12800
H2001       H  0.11636963  0.89883879  0.31534545     0.09300
H2002       H  0.12291299  0.91327094  0.26973077     0.11400
H2003       H  0.20288038  0.93377169  0.28781117     0.08000
H2004       H  0.19682339  0.91922783  0.33254599     0.10700
C2005       C  0.14970318  0.90973151  0.50022540    -0.03900
C2006       C  0.17468155  0.92131467  0.49986947    -0.06500
C2007       C  0.17713046  0.94873116  0.49898244    -0.21600
C2008       C  0.15454223  0.96451961  0.49820009     0.24200
C2009       C  0.12980935  0.95253359  0.49829105    -0.19100
C2010       C  0.12742417  0.92554504  0.49944473    -0.09100
C2011       C  0.15493129  0.99346958  0.49733598    -0.19400
C2012       C  0.17481096  0.00908493  0.50488853    -0.24200
C2013       C  0.17024788  0.03762585  0.50751751     0.26200
C2014       C  0.14629760  0.04655028  0.51766087    -0.20900
C2015       C  0.14032633  0.07298652  0.51736655    -0.10600
C2016       C  0.15843330  0.09138761  0.50785551    -0.11100
C2017       C  0.18304915  0.08284549  0.49902329    -0.04100
C2018       C  0.18898183  0.05601100  0.49899005    -0.19200
H2019       H  0.19204950  0.90923995  0.50029852     0.09900
H2020       H  0.19650271  0.95738079  0.49860172     0.10000
H2021       H  0.11210190  0.96414417  0.49771928     0.09600
H2022       H  0.10803040  0.91683066  0.49950525     0.10800
H2023       H  0.13661109  0.00267966  0.49168569     0.10800
H2024       H  0.19390508  0.00117691  0.50966334     0.12800
H2025       H  0.13174597  0.03296436  0.52514039     0.09300
H2026       H  0.12099472  0.07901989  0.52360839     0.11400
H2027       H  0.19717075  0.09678120  0.49138124     0.08000
H2028       H  0.20764801  0.04954545  0.49130879     0.10700
C2029       C  0.91991059  0.81409128  0.50373022    -0.03900
C2030       C  0.94210535  0.82617464  0.51451443    -0.06500
C2031       C  0.96640982  0.81406551  0.51351309    -0.21600
C2032       C  0.96927841  0.78986517  0.50095021     0.24200
C2033       C  0.94705944  0.77734555  0.49059492    -0.19100
C2034       C  0.92235435  0.78920557  0.49237250    -0.09100
C2035       C  0.99595160  0.78097039  0.49421340    -0.19400
C2036       C  0.01553219  0.78256270  0.51172207    -0.24200
C2037       C  0.04197639  0.79151858  0.50384922     0.26200
C2038       C  0.06434573  0.78216238  0.51672935    -0.20900
C2039       C  0.08856895  0.79486120  0.51347855    -0.10600
C2040       C  0.09034103  0.81788613  0.49840933    -0.11100
C2041       C  0.06794870  0.82678668  0.48525712    -0.04100
C2042       C  0.04425337  0.81343027  0.48738882    -0.19200
H2043       H  0.94092869  0.84577199  0.52239179     0.09900
H2044       H  0.98335347  0.82461707  0.52075151     0.10000
H2045       H  0.94900965  0.75894552  0.48032154     0.09600
H2046       H  0.90549424  0.77971784  0.48366012     0.10800
H2047       H  0.00054450  0.77918320  0.47348441     0.10800
H2048       H  0.01091214  0.78329899  0.53251576     0.12800
H2049       H  0.06283562  0.76571224  0.53006899     0.09300
H2050       H  0.10545416  0.78785669  0.52417790     0.11400
H2051       H  0.06818424  0.84524422  0.47490793     0.08000
H2052       H  0.02711399  0.82174498  0.47810386     0.10700
loop_ 
_geom_bond_atom_site_label_1 
_geom_bond_atom_site_label_2 
_geom_bond_distance 
_geom_bond_site_symmetry_2 
_ccdc_geom_bond_type 
C1            C2   1.416       .  A
C1            C6   1.418       .  A
C1         C1968   1.486       .  S
C2            C3   1.416       .  A
C2         C2040   1.492       .  S
C3            C4   1.416       .  A
C3         C1909   1.480       .  S
C4            C5   1.406       .  A
C4         C1944   1.485       .  S
C5            C6   1.407       .  A
C5         C2005   1.480       .  S
C6         C1981   1.479       .  S
C7            C8   1.414       .  A
C7           C12   1.420       .  A
C7         C1789   1.491       .  S
C8            C9   1.414       .  A
C8         C2016   1.486       .  S
C9           C10   1.421       .  A
C9         C1861   1.497       .  S
C10          C11   1.417       .  A
C10        C1837   1.479       .  S
C11          C12   1.416       .  A
C11        C1885   1.496       .  S
C12        C1813   1.487       .  S
C13          C14   1.415       .  A
C13          C18   1.421       .  A
C13        C1669   1.482       .  S
C14          C15   1.412       .  A
C14        C1896   1.492       .  S
C15          C16   1.417       .  A
C15        C1717   1.481       .  S
C16          C17   1.412       .  A
C16        C1752   1.488       .  S
C17          C18   1.411       .  A
C17        C1765   1.487       .  S
C18        C1693   1.487       .  S
C19          C20   1.414       .  A
C19          C24   1.417       .  A
C19        C1573   1.481       .  S
C20          C21   1.413       .  A
C20        C2029   1.486       .  S
C21          C22   1.418       .  A
C21        C1645   1.484       .  S
C22          C23   1.413       .  A
C22        C1621   1.490       .  S
C23          C24   1.409       .  A
C23        C1776   1.482       .  S
C24        C1597   1.490       .  S
C25          C26   1.410       .  A
C25          C30   1.418       .  A
C25        C1501   1.482       .  S
C26          C27   1.413       .  A
C26        C1560   1.493       .  S
C27          C28   1.417       .  A
C27        C1453   1.478       .  S
C28          C29   1.405       .  A
C28        C1429   1.480       .  S
C29          C30   1.411       .  A
C29        C1525   1.488       .  S
C30        C1477   1.478       .  S
C31          C32   1.421       .  A
C31          C36   1.417       .  A
C31        C1320   1.487       .  S
C32          C33   1.411       .  A
C32        C1344   1.486       .  S
C33          C34   1.410       .  A
C33        C1549   1.485       .  S
C34          C35   1.413       .  A
C34        C1381   1.482       .  S
C35          C36   1.411       .  A
C35        C1357   1.483       .  S
C36        C1405   1.488       .  S
C37          C38   1.415       .  A
C37          C42   1.410       .  A
C37        C1213   1.480       .  S
C38          C39   1.413       .  A
C38        C1189   1.490       .  S
C39          C40   1.417       .  A
C39        C1536   1.486       .  S
C40          C41   1.420       .  A
C40        C1248   1.491       .  S
C41          C42   1.411       .  A
C41        C1261   1.483       .  S
C42        C1285   1.487       .  S
C43          C44   1.411       .  A
C43          C48   1.419       .  A
C43        C1141   1.485       .  S
C44          C45   1.414       .  A
C44        C1416   1.488       .  S
C45          C46   1.415       .  A
C45        C1093   1.482       .  S
C46          C47   1.408       .  A
C46        C1117   1.484       .  S
C47          C48   1.413       .  A
C47        C1296   1.482       .  S
C48        C1165   1.483       .  S
C49          C50   1.423       .  A
C49          C54   1.409       .  A
C49         C973   1.482       .  S
C50          C51   1.417       .  A
C50         C960   1.486       .  S
C51          C52   1.414       .  A
C51        C1069   1.494       .  S
C52          C53   1.416       .  A
C52         C997   1.485       .  S
C53          C54   1.408       .  A
C53        C1021   1.481       .  S
C54        C1045   1.487       .  S
C55          C56   1.412       .  A
C55          C60   1.418       .  A
C55         C853   1.487       .  S
C56          C57   1.415       .  A
C56        C1056   1.488       .  S
C57          C58   1.420       .  A
C57         C912   1.485       .  S
C58          C59   1.413       .  A
C58         C877   1.489       .  S
C59          C60   1.414       .  A
C59         C936   1.486       .  S
C60         C829   1.485       .  S
C61          C62   1.418       .  A
C61          C66   1.414       .  A
C61         C733   1.485       .  S
C62          C63   1.413       .  A
C62         C709   1.490       .  S
C63          C64   1.410       .  A
C63         C925   1.483       .  S
C64          C65   1.419       .  A
C64         C757   1.486       .  S
C65          C66   1.415       .  A
C65         C792   1.484       .  S
C66         C816   1.491       .  S
C67          C68   1.416       .  A
C67          C72   1.415       .  A
C67         C637   1.486       .  S
C68          C69   1.416       .  A
C68         C624   1.488       .  S
C69          C70   1.419       .  A
C69        C1080   1.493       .  S
C70          C71   1.423       .  A
C70         C661   1.489       .  S
C71          C72   1.417       .  A
C71         C696   1.492       .  S
C72         C805   1.492       .  S
N73          N74   1.331       .  A
N73          N79   1.319       .  A
N73        Mn102   2.231       .  S
N74          C81   1.359       .  A
N75          N77   1.320       .  A
N75          N76   1.315       .  A
N75         Mn91   2.204       .  S
N76          C82   1.348       .  A
N77          N78   1.328       .  A
N77        Mn102   2.230       .  S
N78          C82   1.357       .  A
N79          N80   1.313       .  A
N79         Mn91   2.198       .  S
N80          C81   1.347       .  A
C81         C498   1.473       .  S
C82         C251   1.472       .  S
N83          N89   1.313       .  A
N83          N84   1.313       .  A
N83        Mn113   2.171       .  S
N84          C92   1.346       .  A
N85          N86   1.325       .  A
N85          N87   1.313       .  A
N85         Mn91   2.216       .  S
N86          C93   1.358       .  A
N87          N88   1.314       .  A
N87        Mn113   2.166       .  S
N88          C93   1.347       .  A
N89          N90   1.326       .  A
N89         Mn91   2.217       .  S
N90          C92   1.358       .  A
Mn91       Cl115   2.526       .  S
C92        C1152   1.469       .  S
C93        C1933   1.471       .  S
N94          N95   1.329       .  A
N94         N100   1.319       .  A
N94        Mn102   2.228   1_545  S
N95         C103   1.358       .  A
N96          N98   1.319       .  A
N96          N97   1.313       .  A
N96        Mn114   2.193       .  S
N97         C104   1.345       .  A
N98          N99   1.330       .  A
N98        Mn102   2.231   1_545  S
N99         C104   1.359       .  A
N100        N101   1.312       .  A
N100       Mn114   2.191       .  S
N101        C103   1.346       .  A
Mn102      Cl115   2.589       .  S
C103        C374   1.467       .  S
C104        C126   1.470       .  S
N105        N106   1.315       .  A
N105        N111   1.312       .  A
N105       Mn113   2.173   1_545  S
N106        C116   1.349       .  A
N107        N108   1.328       .  A
N107        N109   1.312       .  A
N107       Mn114   2.229       .  S
N108        C117   1.360       .  A
N109        N110   1.314       .  A
N109       Mn113   2.168   1_545  S
N110        C117   1.347       .  A
N111        N112   1.327       .  A
N111       Mn114   2.222       .  S
N112        C116   1.359       .  A
Mn113      Cl115   2.547       .  S
Mn114      Cl115   2.518   1_545  S
C116       C1800   1.478       .  S
C117       C1368   1.477       .  S
N118        N119   1.329       .  A
N118        N124   1.320       .  A
N118       Mn147   2.230       .  S
N119        C126   1.358       .  A
N120        N122   1.319       .  A
N120        N121   1.310       .  A
N120       Mn136   2.191       .  S
N121        C127   1.344       .  A
N122        N123   1.330       .  A
N122       Mn147   2.232       .  S
N123        C127   1.360       .  A
N124        N125   1.314       .  A
N124       Mn136   2.201       .  S
N125        C126   1.347       .  A
C127        C373   1.467       .  S
N128        N134   1.311       .  A
N128        N129   1.314       .  A
N128       Mn158   2.161       .  S
N129        C137   1.346       .  A
N130        N131   1.329       .  A
N130        N132   1.313       .  A
N130       Mn136   2.226       .  S
N131        C138   1.361       .  A
N132        N133   1.311       .  A
N132       Mn158   2.163       .  S
N133        C138   1.344       .  A
N134        N135   1.325       .  A
N134       Mn136   2.211       .  S
N135        C137   1.357       .  A
Mn136      Cl160   2.522       .  S
C137       C1008   1.464       .  S
C138       C1824   1.473       .  S
N139        N140   1.329       .  A
N139        N145   1.318       .  A
N139       Mn147   2.231   1_655  S
N140        C148   1.360       .  A
N141        N143   1.319       .  A
N141        N142   1.310       .  A
N141       Mn159   2.181       .  S
N142        C149   1.343       .  A
N143        N144   1.330       .  A
N143       Mn147   2.234   1_655  S
N144        C149   1.360       .  A
N145        N146   1.311       .  A
N145       Mn159   2.178       .  S
N146        C148   1.343       .  A
Mn147      Cl160   2.590       .  S
C148        C477   1.464       .  S
C149        C531   1.465       .  S
N150        N151   1.311       .  A
N150        N156   1.311       .  A
N150       Mn158   2.156   1_655  S
N151        C161   1.346       .  A
N152        N153   1.327       .  A
N152        N154   1.311       .  A
N152       Mn159   2.211       .  S
N153        C162   1.359       .  A
N154        N155   1.312       .  A
N154       Mn158   2.165   1_655  S
N155        C162   1.347       .  A
N156        N157   1.326       .  A
N156       Mn159   2.211       .  S
N157        C161   1.359       .  A
Mn158      Cl160   2.533       .  S
Mn159      Cl160   2.515   1_655  S
C161       C1680   1.471       .  S
C162        C672   1.475       .  S
N163        N164   1.326       .  A
N163        N169   1.320       .  A
N163       Mn192   2.218       .  S
N164        C171   1.355       .  A
N165        N167   1.319       .  A
N165        N166   1.315       .  A
N165       Mn181   2.194       .  S
N166        C172   1.346       .  A
N167        N168   1.330       .  A
N167       Mn192   2.237       .  S
N168        C172   1.359       .  A
N169        N170   1.313       .  A
N169       Mn181   2.201       .  S
N170        C171   1.348       .  A
C171        C318   1.464       .  S
C172        C227   1.474       .  S
N173        N179   1.313       .  A
N173        N174   1.312       .  A
N173       Mn203   2.160   1_455  S
N174        C182   1.346       .  A
N175        N176   1.325       .  A
N175        N177   1.312       .  A
N175       Mn181   2.210       .  S
N176        C183   1.358       .  A
N177        N178   1.313       .  A
N177       Mn203   2.166   1_455  S
N178        C183   1.347       .  A
N179        N180   1.324       .  A
N179       Mn181   2.212       .  S
N180        C182   1.358       .  A
Mn181      Cl205   2.520       .  S
C182        C840   1.470       .  S
C183       C1957   1.475       .  S
N184        N185   1.329       .  A
N184        N190   1.319       .  A
N184       Mn192   2.219   1_655  S
N185        C193   1.357       .  A
N186        N188   1.318       .  A
N186        N187   1.310       .  A
N186       Mn204   2.186       .  S
N187        C194   1.345       .  A
N188        N189   1.332       .  A
N188       Mn192   2.237   1_655  S
N189        C194   1.360       .  A
N190        N191   1.312       .  A
N190       Mn204   2.202       .  S
N191        C193   1.348       .  A
Mn192      Cl205   2.582       .  S
C193        C577   1.468       .  S
C194        C431   1.471       .  S
N195        N196   1.314       .  A
N195        N201   1.312       .  A
N195       Mn203   2.164       .  S
N196        C206   1.346       .  A
N197        N198   1.325       .  A
N197        N199   1.311       .  A
N197       Mn204   2.209       .  S
N198        C207   1.357       .  A
N199        N200   1.316       .  A
N199       Mn203   2.177       .  S
N200        C207   1.349       .  A
N201        N202   1.327       .  A
N201       Mn204   2.227       .  S
N202        C206   1.358       .  A
Mn203      Cl205   2.553   1_655  S
Mn204      Cl205   2.516   1_655  S
C206       C1656   1.466       .  S
C207        C720   1.475       .  S
N208        N209   1.313       .  A
N208        N214   1.313       .  A
N208       Mn237   2.163       .  S
N209        C216   1.345       .  A
N210        N212   1.313       .  A
N210        N211   1.325       .  A
N210       Mn226   2.209       .  S
N211        C217   1.357       .  A
N212        N213   1.315       .  A
N212       Mn237   2.179       .  S
N213        C217   1.348       .  A
N214        N215   1.327       .  A
N214       Mn226   2.222       .  S
N215        C216   1.359       .  A
C216       C1272   1.469       .  S
C217        C864   1.470       .  S
N218        N224   1.320       .  A
N218        N219   1.329       .  A
N218       Mn248   2.232       .  S
N219        C227   1.358       .  A
N220        N221   1.313       .  A
N220        N222   1.320       .  A
N220       Mn226   2.198       .  S
N221        C228   1.346       .  A
N222        N223   1.331       .  A
N222       Mn248   2.241       .  S
N223        C228   1.360       .  A
N224        N225   1.315       .  A
N224       Mn226   2.206       .  S
N225        C227   1.348       .  A
Mn226      Cl250   2.533       .  S
C228        C317   1.476       .  S
N229        N230   1.312       .  A
N229        N235   1.312       .  A
N229       Mn237   2.162   1_556  S
N230        C238   1.346       .  A
N231        N233   1.311       .  A
N231        N232   1.323       .  A
N231       Mn249   2.197       .  S
N232        C239   1.355       .  A
N233        N234   1.316       .  A
N233       Mn237   2.178   1_556  S
N234        C239   1.350       .  A
N235        N236   1.327       .  A
N235       Mn249   2.216       .  S
N236        C238   1.360       .  A
Mn237      Cl250   2.543       .  S
C238        C984   1.475       .  S
C239       C1176   1.469       .  S
N240        N241   1.329       .  A
N240        N246   1.320       .  A
N240       Mn248   2.237   1_556  S
N241        C251   1.359       .  A
N242        N243   1.312       .  A
N242        N244   1.320       .  A
N242       Mn249   2.185       .  S
N243        C252   1.345       .  A
N244        N245   1.330       .  A
N244       Mn248   2.237   1_556  S
N245        C252   1.359       .  A
N246        N247   1.314       .  A
N246       Mn249   2.197       .  S
N247        C251   1.346       .  A
Mn248      Cl250   2.575       .  S
Mn249      Cl250   2.532   1_556  S
C252        C497   1.468       .  S
N253        N254   1.312       .  A
N253        N259   1.311       .  A
N253       Mn282   2.161       .  S
N254        C261   1.347       .  A
N255        N257   1.312       .  A
N255        N256   1.327       .  A
N255       Mn271   2.219       .  S
N256        C262   1.358       .  A
N257        N258   1.313       .  A
N257       Mn282   2.167       .  S
N258        C262   1.346       .  A
N259        N260   1.323       .  A
N259       Mn271   2.194       .  S
N260        C261   1.355       .  A
C261       C1848   1.461       .  S
C262        C888   1.469       .  S
N263        N269   1.320       .  A
N263        N264   1.329       .  A
N263       Mn293   2.237       .  S
N264        C272   1.359       .  A
N265        N266   1.312       .  A
N265        N267   1.319       .  A
N265       Mn271   2.188       .  S
N266        C273   1.344       .  A
N267        N268   1.331       .  A
N267       Mn293   2.239       .  S
N268        C273   1.361       .  A
N269        N270   1.312       .  A
N269       Mn271   2.188       .  S
N270        C272   1.345       .  A
Mn271      Cl295   2.523       .  S
C272        C352   1.467       .  S
C273        C341   1.471       .  S
N274        N275   1.313       .  A
N274        N280   1.312       .  A
N274       Mn282   2.165   1_655  S
N275        C283   1.346       .  A
N276        N278   1.312       .  A
N276        N277   1.325       .  A
N276       Mn294   2.207       .  S
N277        C284   1.356       .  A
N278        N279   1.313       .  A
N278       Mn282   2.162   1_655  S
N279        C284   1.346       .  A
N280        N281   1.328       .  A
N280       Mn294   2.224       .  S
N281        C283   1.360       .  A
Mn282      Cl295   2.548       .  S
C283        C768   1.474       .  S
C284       C1728   1.462       .  S
N285        N286   1.330       .  A
N285        N291   1.320       .  A
N285       Mn293   2.241   1_655  S
N286        C296   1.360       .  A
N287        N288   1.311       .  A
N287        N289   1.320       .  A
N287       Mn294   2.187       .  S
N288        C297   1.344       .  A
N289        N290   1.329       .  A
N289       Mn293   2.233   1_655  S
N290        C297   1.358       .  A
N291        N292   1.315       .  A
N291       Mn294   2.201       .  S
N292        C296   1.346       .  A
Mn293      Cl295   2.578       .  S
Mn294      Cl295   2.522   1_655  S
C296        C408   1.476       .  S
C297        C452   1.467       .  S
N298        N299   1.312       .  A
N298        N304   1.312       .  A
N298       Mn327   2.157       .  S
N299        C306   1.346       .  A
N300        N302   1.313       .  A
N300        N301   1.325       .  A
N300       Mn316   2.212       .  S
N301        C307   1.357       .  A
N302        N303   1.315       .  A
N302       Mn327   2.178       .  S
N303        C307   1.350       .  A
N304        N305   1.324       .  A
N304       Mn316   2.209       .  S
N305        C306   1.356       .  A
C306       C1992   1.463       .  S
C307       C1237   1.477       .  S
N308        N314   1.319       .  A
N308        N309   1.332       .  A
N308       Mn338   2.240       .  S
N309        C317   1.360       .  A
N310        N311   1.312       .  A
N310        N312   1.319       .  A
N310       Mn316   2.186       .  S
N311        C318   1.345       .  A
N312        N313   1.327       .  A
N312       Mn338   2.227       .  S
N313        C318   1.358       .  A
N314        N315   1.313       .  A
N314       Mn316   2.196       .  S
N315        C317   1.346       .  A
Mn316      Cl340   2.516       .  S
N319        N320   1.313       .  A
N319        N325   1.312       .  A
N319       Mn327   2.165   1_545  S
N320        C328   1.348       .  A
N321        N323   1.313       .  A
N321        N322   1.328       .  A
N321       Mn339   2.228       .  S
N322        C329   1.361       .  A
N323        N324   1.315       .  A
N323       Mn327   2.175   1_545  S
N324        C329   1.348       .  A
N325        N326   1.323       .  A
N325       Mn339   2.203       .  S
N326        C328   1.356       .  A
Mn327      Cl340   2.558       .  S
C328       C1488   1.466       .  S
C329       C1872   1.483       .  S
N330        N331   1.330       .  A
N330        N336   1.319       .  A
N330       Mn338   2.232   1_545  S
N331        C341   1.358       .  A
N332        N333   1.314       .  A
N332        N334   1.320       .  A
N332       Mn339   2.202       .  S
N333        C342   1.347       .  A
N334        N335   1.330       .  A
N334       Mn338   2.234   1_545  S
N335        C342   1.359       .  A
N336        N337   1.313       .  A
N336       Mn339   2.195       .  S
N337        C341   1.347       .  A
Mn338      Cl340   2.585       .  S
Mn339      Cl340   2.518   1_545  S
C342        C351   1.473       .  S
N343        N344   1.329       .  A
N343        N349   1.320       .  A
N343       Mn372   2.231       .  S
N344        C351   1.358       .  A
N345        N347   1.319       .  A
N345        N346   1.313       .  A
N345       Mn361   2.195       .  S
N346        C352   1.347       .  A
N347        N348   1.328       .  A
N347       Mn372   2.222       .  S
N348        C352   1.357       .  A
N349        N350   1.314       .  A
N349       Mn361   2.203       .  S
N350        C351   1.347       .  A
N353        N359   1.312       .  A
N353        N354   1.315       .  A
N353       Mn383   2.170   1_554  S
N354        C362   1.348       .  A
N355        N356   1.326       .  A
N355        N357   1.312       .  A
N355       Mn361   2.216       .  S
N356        C363   1.359       .  A
N357        N358   1.312       .  A
N357       Mn383   2.156   1_554  S
N358        C363   1.345       .  A
N359        N360   1.325       .  A
N359       Mn361   2.215       .  S
N360        C362   1.358       .  A
Mn361      Cl385   2.525       .  S
C362        C901   1.476       .  S
C363       C1512   1.467       .  S
N364        N365   1.329       .  A
N364        N370   1.318       .  A
N364       Mn372   2.225   1_556  S
N365        C373   1.358       .  A
N366        N368   1.319       .  A
N366        N367   1.312       .  A
N366       Mn384   2.192       .  S
N367        C374   1.346       .  A
N368        N369   1.329       .  A
N368       Mn372   2.229   1_556  S
N369        C374   1.359       .  A
N370        N371   1.311       .  A
N370       Mn384   2.194       .  S
N371        C373   1.346       .  A
Mn372      Cl385   2.577       .  S
N375        N376   1.311       .  A
N375        N381   1.312       .  A
N375       Mn383   2.165       .  S
N376        C386   1.346       .  A
N377        N378   1.324       .  A
N377        N379   1.312       .  A
N377       Mn384   2.207       .  S
N378        C387   1.356       .  A
N379        N380   1.312       .  A
N379       Mn383   2.156       .  S
N380        C387   1.345       .  A
N381        N382   1.328       .  A
N381       Mn384   2.216       .  S
N382        C386   1.360       .  A
Mn383      Cl385   2.541   1_556  S
Mn384      Cl385   2.523   1_556  S
C386       C1392   1.477       .  S
C387       C1032   1.462       .  S
N388        N389   1.314       .  A
N388        N394   1.312       .  A
N388       Mn417   2.169   1_545  S
N389        C396   1.348       .  A
N390        N392   1.313       .  A
N390        N391   1.331       .  A
N390       Mn406   2.245       .  S
N391        C397   1.364       .  A
N392        N393   1.311       .  A
N392       Mn417   2.156   1_545  S
N393        C397   1.344       .  A
N394        N395   1.325       .  A
N394       Mn406   2.213       .  S
N395        C396   1.357       .  A
C396       C1741   1.472       .  S
C397       C1440   1.482       .  S
N398        N404   1.319       .  A
N398        N399   1.329       .  A
N398       Mn428   2.226   1_545  S
N399        C407   1.358       .  A
N400        N401   1.318       .  A
N400        N402   1.321       .  A
N400       Mn406   2.224       .  S
N401        C408   1.351       .  A
N402        N403   1.328       .  A
N402       Mn428   2.225   1_545  S
N403        C408   1.356       .  A
N404        N405   1.310       .  A
N404       Mn406   2.184       .  S
N405        C407   1.345       .  A
Mn406      Cl430   2.520   1_545  S
C407        C453   1.464       .  S
N409        N410   1.314       .  A
N409        N415   1.312       .  A
N409       Mn417   2.174       .  S
N410        C418   1.347       .  A
N411        N413   1.312       .  A
N411        N412   1.323       .  A
N411       Mn429   2.210       .  S
N412        C419   1.357       .  A
N413        N414   1.316       .  A
N413       Mn417   2.172       .  S
N414        C419   1.350       .  A
N415        N416   1.327       .  A
N415       Mn429   2.215       .  S
N416        C418   1.358       .  A
Mn417      Cl430   2.556       .  S
C418       C1200   1.473       .  S
C419       C1632   1.476       .  S
N420        N421   1.332       .  A
N420        N426   1.318       .  A
N420       Mn428   2.233       .  S
N421        C431   1.360       .  A
N422        N423   1.314       .  A
N422        N424   1.320       .  A
N422       Mn429   2.202       .  S
N423        C432   1.348       .  A
N424        N425   1.327       .  A
N424       Mn428   2.220       .  S
N425        C432   1.356       .  A
N426        N427   1.310       .  A
N426       Mn429   2.188       .  S
N427        C431   1.344       .  A
Mn428      Cl430   2.582       .  S
Mn429      Cl430   2.520       .  S
C432        C576   1.466       .  S
N433        N434   1.313       .  A
N433        N439   1.310       .  A
N433       Mn462   2.164       .  S
N434        C441   1.348       .  A
N435        N437   1.311       .  A
N435        N436   1.324       .  A
N435       Mn451   2.207       .  S
N436        C442   1.358       .  A
N437        N438   1.313       .  A
N437       Mn462   2.159       .  S
N438        C442   1.347       .  A
N439        N440   1.323       .  A
N439       Mn451   2.199       .  S
N440        C441   1.356       .  A
C441       C1464   1.469       .  S
C442        C781   1.472       .  S
N443        N449   1.318       .  A
N443        N444   1.329       .  A
N443       Mn473   2.225   1_554  S
N444        C452   1.358       .  A
N445        N446   1.310       .  A
N445        N447   1.317       .  A
N445       Mn451   2.183       .  S
N446        C453   1.345       .  A
N447        N448   1.329       .  A
N447       Mn473   2.221   1_554  S
N448        C453   1.359       .  A
N449        N450   1.312       .  A
N449       Mn451   2.189       .  S
N450        C452   1.346       .  A
Mn451      Cl475   2.522   1_554  S
N454        N455   1.313       .  A
N454        N460   1.312       .  A
N454       Mn462   2.165   1_556  S
N455        C463   1.346       .  A
N456        N458   1.312       .  A
N456        N457   1.327       .  A
N456       Mn474   2.223       .  S
N457        C464   1.359       .  A
N458        N459   1.313       .  A
N458       Mn462   2.163   1_556  S
N459        C464   1.345       .  A
N460        N461   1.327       .  A
N460       Mn474   2.226       .  S
N461        C463   1.361       .  A
Mn462      Cl475   2.539   1_554  S
C463        C685   1.476       .  S
C464       C1333   1.469       .  S
N465        N466   1.328       .  A
N465        N471   1.321       .  A
N465       Mn473   2.221       .  S
N466        C476   1.356       .  A
N467        N468   1.313       .  A
N467        N469   1.321       .  A
N467       Mn474   2.207       .  S
N468        C477   1.348       .  A
N469        N470   1.327       .  A
N469       Mn473   2.213       .  S
N470        C477   1.354       .  A
N471        N472   1.314       .  A
N471       Mn474   2.207       .  S
N472        C476   1.348       .  A
Mn473      Cl475   2.574       .  S
Mn474      Cl475   2.528       .  S
C476        C532   1.468       .  S
N478        N479   1.313       .  A
N478        N484   1.312       .  A
N478       Mn507   2.163       .  S
N479        C486   1.346       .  A
N480        N482   1.311       .  A
N480        N481   1.323       .  A
N480       Mn496   2.200       .  S
N481        C487   1.355       .  A
N482        N483   1.315       .  A
N482       Mn507   2.168       .  S
N483        C487   1.348       .  A
N484        N485   1.324       .  A
N484       Mn496   2.208       .  S
N485        C486   1.356       .  A
C486       C1920   1.462       .  S
C487        C949   1.465       .  S
N488        N494   1.319       .  A
N488        N489   1.329       .  A
N488       Mn518   2.228       .  S
N489        C497   1.359       .  A
N490        N491   1.312       .  A
N490        N492   1.318       .  A
N490       Mn496   2.184       .  S
N491        C498   1.344       .  A
N492        N493   1.332       .  A
N492       Mn518   2.240       .  S
N493        C498   1.361       .  A
N494        N495   1.311       .  A
N494       Mn496   2.190       .  S
N495        C497   1.346       .  A
Mn496      Cl520   2.518       .  S
N499        N500   1.312       .  A
N499        N505   1.313       .  A
N499       Mn507   2.170   1_655  S
N500        C508   1.347       .  A
N501        N503   1.311       .  A
N501        N502   1.325       .  A
N501       Mn519   2.204       .  S
N502        C509   1.358       .  A
N503        N504   1.311       .  A
N503       Mn507   2.157   1_655  S
N504        C509   1.346       .  A
N505        N506   1.327       .  A
N505       Mn519   2.221       .  S
N506        C508   1.359       .  A
Mn507      Cl520   2.546       .  S
C508        C613   1.475       .  S
C509       C1584   1.470       .  S
N510        N511   1.328       .  A
N510        N516   1.320       .  A
N510       Mn518   2.225   1_655  S
N511        C521   1.357       .  A
N512        N513   1.313       .  A
N512        N514   1.319       .  A
N512       Mn519   2.182       .  S
N513        C522   1.344       .  A
N514        N515   1.328       .  A
N514       Mn518   2.238   1_655  S
N515        C522   1.359       .  A
N516        N517   1.313       .  A
N516       Mn519   2.202       .  S
N517        C521   1.347       .  A
Mn518      Cl520   2.578       .  S
Mn519      Cl520   2.522   1_655  S
C521        C554   1.466       .  S
C522        C598   1.467       .  S
N523        N524   1.327       .  A
N523        N529   1.319       .  A
N523       Mn552   2.215   1_545  S
N524        C531   1.355       .  A
N525        N527   1.318       .  A
N525        N526   1.312       .  A
N525       Mn541   2.188       .  S
N526        C532   1.344       .  A
N527        N528   1.329       .  A
N527       Mn552   2.232   1_545  S
N528        C532   1.360       .  A
N529        N530   1.312       .  A
N529       Mn541   2.199       .  S
N530        C531   1.348       .  A
N533        N539   1.312       .  A
N533        N534   1.315       .  A
N533       Mn563   2.178   1_545  S
N534        C542   1.350       .  A
N535        N536   1.328       .  A
N535        N537   1.313       .  A
N535       Mn541   2.224       .  S
N536        C543   1.361       .  A
N537        N538   1.313       .  A
N537       Mn563   2.167   1_545  S
N538        C543   1.346       .  A
N539        N540   1.324       .  A
N539       Mn541   2.207       .  S
N540        C542   1.357       .  A
Mn541      Cl565   2.522   1_545  S
C542       C1309   1.475       .  S
C543       C1704   1.476       .  S
N544        N545   1.330       .  A
N544        N550   1.319       .  A
N544       Mn552   2.226       .  S
N545        C553   1.358       .  A
N546        N548   1.318       .  A
N546        N547   1.312       .  A
N546       Mn564   2.182       .  S
N547        C554   1.345       .  A
N548        N549   1.328       .  A
N548       Mn552   2.227       .  S
N549        C554   1.358       .  A
N550        N551   1.314       .  A
N550       Mn564   2.207       .  S
N551        C553   1.349       .  A
Mn552      Cl565   2.589       .  S
C553        C599   1.475       .  S
N555        N556   1.315       .  A
N555        N561   1.313       .  A
N555       Mn563   2.173       .  S
N556        C566   1.347       .  A
N557        N558   1.323       .  A
N557        N559   1.312       .  A
N557       Mn564   2.201       .  S
N558        C567   1.356       .  A
N559        N560   1.313       .  A
N559       Mn563   2.169       .  S
N560        C567   1.349       .  A
N561        N562   1.326       .  A
N561       Mn564   2.226       .  S
N562        C566   1.359       .  A
Mn563      Cl565   2.544       .  S
Mn564      Cl565   2.516       .  S
C566       C1608   1.474       .  S
C567       C1104   1.471       .  S
N568        N569   1.328       .  A
N568        N574   1.319       .  A
N568       Mn597   2.221   1_554  S
N569        C576   1.358       .  A
N570        N572   1.319       .  A
N570        N571   1.310       .  A
N570       Mn586   2.175       .  S
N571        C577   1.343       .  A
N572        N573   1.331       .  A
N572       Mn597   2.244   1_554  S
N573        C577   1.361       .  A
N574        N575   1.313       .  A
N574       Mn586   2.201       .  S
N575        C576   1.346       .  A
N578        N584   1.312       .  A
N578        N579   1.313       .  A
N578       Mn608   2.161       .  S
N579        C587   1.345       .  A
N580        N581   1.322       .  A
N580        N582   1.311       .  A
N580       Mn586   2.187       .  S
N581        C588   1.353       .  A
N582        N583   1.313       .  A
N582       Mn608   2.173       .  S
N583        C588   1.349       .  A
N584        N585   1.328       .  A
N584       Mn586   2.227       .  S
N585        C587   1.361       .  A
Mn586      Cl610   2.521   1_554  S
C587        C744   1.475       .  S
C588       C1224   1.462       .  S
N589        N590   1.327       .  A
N589        N595   1.320       .  A
N589       Mn597   2.214       .  S
N590        C598   1.355       .  A
N591        N593   1.320       .  A
N591        N592   1.312       .  A
N591       Mn609   2.185       .  S
N592        C599   1.344       .  A
N593        N594   1.332       .  A
N593       Mn597   2.250       .  S
N594        C599   1.362       .  A
N595        N596   1.315       .  A
N595       Mn609   2.212       .  S
N596        C598   1.349       .  A
Mn597      Cl610   2.580       .  S
N600        N601   1.313       .  A
N600        N606   1.314       .  A
N600       Mn608   2.168   1_556  S
N601        C611   1.346       .  A
N602        N603   1.324       .  A
N602        N604   1.311       .  A
N602       Mn609   2.202       .  S
N603        C612   1.356       .  A
N604        N605   1.312       .  A
N604       Mn608   2.158   1_556  S
N605        C612   1.346       .  A
N606        N607   1.328       .  A
N606       Mn609   2.227       .  S
N607        C611   1.360       .  A
Mn608      Cl610   2.548   1_554  S
Mn609      Cl610   2.522       .  S
C611       C1128   1.473       .  S
C612        C648   1.463       .  S
C613        C614   1.404       .  A
C613        C618   1.405       .  A
C614        C615   1.405       .  A
C614        H627   1.083       .  S
C615        C616   1.406       .  A
C615        H628   1.081       .  S
C616        C617   1.401       .  A
C616        C619   1.481       .  S
C617        C618   1.389       .  A
C617        H629   1.083       .  S
C618        H630   1.083       .  S
C619        C620   1.348       .  D
C619        H631   1.087       .  S
C620        C621   1.475       .  S
C620        H632   1.087       .  S
C621        C622   1.403       .  A
C621        C626   1.403       .  A
C622        C623   1.397       .  A
C622        H633   1.083       .  S
C623        C624   1.403       .  A
C623        H634   1.083       .  S
C624        C625   1.405       .  A
C625        C626   1.397       .  A
C625        H635   1.083       .  S
C626        H636   1.083       .  S
C637        C638   1.403       .  A
C637        C642   1.401       .  A
C638        C639   1.392       .  A
C638        H651   1.083       .  S
C639        C640   1.400       .  A
C639        H652   1.084       .  S
C640        C641   1.408       .  A
C640        C643   1.476       .  S
C641        C642   1.400       .  A
C641        H653   1.082       .  S
C642        H654   1.083       .  S
C643        C644   1.344       .  D
C643        H655   1.086       .  S
C644        C645   1.480       .  S
C644        H656   1.086       .  S
C645        C646   1.406       .  A
C645        C650   1.405       .  A
C646        C647   1.401       .  A
C646        H657   1.083       .  S
C647        C648   1.401       .  A
C647        H658   1.083       .  S
C648        C649   1.401       .  A
C649        C650   1.388       .  A
C649        H659   1.084       .  S
C650        H660   1.082       .  S
C661        C662   1.401       .  A
C661        C666   1.405       .  A
C662        C663   1.400       .  A
C662        H675   1.083       .  S
C663        C664   1.406       .  A
C663        H676   1.083       .  S
C664        C665   1.404       .  A
C664        C667   1.481       .  S
C665        C666   1.394       .  A
C665        H677   1.082       .  S
C666        H678   1.083       .  S
C667        C668   1.350       .  D
C667        H679   1.086       .  S
C668        C669   1.485       .  S
C668        H680   1.086       .  S
C669        C670   1.407       .  A
C669        C674   1.403       .  A
C670        C671   1.405       .  A
C670        H681   1.080       .  S
C671        C672   1.404       .  A
C671        H682   1.083       .  S
C672        C673   1.404       .  A
C673        C674   1.388       .  A
C673        H683   1.083       .  S
C674        H684   1.082       .  S
C685        C686   1.401       .  A
C685        C690   1.403       .  A
C686        C687   1.404       .  A
C686        H699   1.083       .  S
C687        C688   1.409       .  A
C687        H700   1.083       .  S
C688        C689   1.410       .  A
C688        C691   1.497       .  S
C689        C690   1.394       .  A
C689        H701   1.078       .  S
C690        H702   1.084       .  S
C691        C692   1.351       .  D
C691        H703   1.086       .  S
C692        C693   1.484       .  S
C692        H704   1.081       .  S
C693        C694   1.404       .  A
C693        C698   1.406       .  A
C694        C695   1.395       .  A
C694        H705   1.083       .  S
C695        C696   1.402       .  A
C695        H706   1.083       .  S
C696        C697   1.407       .  A
C697        C698   1.400       .  A
C697        H707   1.083       .  S
C698        H708   1.082       .  S
C709        C710   1.400       .  A
C709        C714   1.404       .  A
C710        C711   1.398       .  A
C710        H723   1.083       .  S
C711        C712   1.406       .  A
C711        H724   1.083       .  S
C712        C713   1.408       .  A
C712        C715   1.487       .  S
C713        C714   1.398       .  A
C713        H725   1.081       .  S
C714        H726   1.083       .  S
C715        C716   1.350       .  D
C715        H727   1.086       .  S
C716        C717   1.489       .  S
C716        H728   1.085       .  S
C717        C718   1.407       .  A
C717        C722   1.407       .  A
C718        C719   1.403       .  A
C718        H729   1.082       .  S
C719        C720   1.403       .  A
C719        H730   1.083       .  S
C720        C721   1.403       .  A
C721        C722   1.394       .  A
C721        H731   1.083       .  S
C722        H732   1.081       .  S
C733        C734   1.403       .  A
C733        C738   1.404       .  A
C734        C735   1.398       .  A
C734        H747   1.083       .  S
C735        C736   1.404       .  A
C735        H748   1.083       .  S
C736        C737   1.404       .  A
C736        C739   1.478       .  S
C737        C738   1.395       .  A
C737        H749   1.083       .  S
C738        H750   1.083       .  S
C739        C740   1.351       .  D
C739        H751   1.082       .  S
C740        C741   1.491       .  S
C740        H752   1.087       .  S
C741        C742   1.409       .  A
C741        C746   1.407       .  A
C742        C743   1.405       .  A
C742        H753   1.083       .  S
C743        C744   1.402       .  A
C743        H754   1.083       .  S
C744        C745   1.403       .  A
C745        C746   1.392       .  A
C745        H755   1.084       .  S
C746        H756   1.079       .  S
C757        C758   1.403       .  A
C757        C762   1.404       .  A
C758        C759   1.397       .  A
C758        H771   1.083       .  S
C759        C760   1.402       .  A
C759        H772   1.083       .  S
C760        C761   1.406       .  A
C760        C763   1.479       .  S
C761        C762   1.400       .  A
C761        H773   1.083       .  S
C762        H774   1.083       .  S
C763        C764   1.348       .  D
C763        H775   1.086       .  S
C764        C765   1.486       .  S
C764        H776   1.087       .  S
C765        C766   1.408       .  A
C765        C770   1.404       .  A
C766        C767   1.406       .  A
C766        H777   1.083       .  S
C767        C768   1.403       .  A
C767        H778   1.083       .  S
C768        C769   1.403       .  A
C769        C770   1.392       .  A
C769        H779   1.084       .  S
C770        H780   1.082       .  S
C781        C782   1.403       .  A
C781        C786   1.405       .  A
C782        C783   1.400       .  A
C782        H795   1.083       .  S
C783        C784   1.403       .  A
C783        H796   1.082       .  S
C784        C785   1.403       .  A
C784        C787   1.475       .  S
C785        C786   1.390       .  A
C785        H797   1.083       .  S
C786        H798   1.083       .  S
C787        C788   1.345       .  D
C787        H799   1.087       .  S
C788        C789   1.475       .  S
C788        H800   1.087       .  S
C789        C790   1.404       .  A
C789        C794   1.404       .  A
C790        C791   1.400       .  A
C790        H801   1.083       .  S
C791        C792   1.402       .  A
C791        H802   1.083       .  S
C792        C793   1.401       .  A
C793        C794   1.390       .  A
C793        H803   1.083       .  S
C794        H804   1.083       .  S
C805        C806   1.404       .  A
C805        C810   1.407       .  A
C806        C807   1.391       .  A
C806        H819   1.081       .  S
C807        C808   1.399       .  A
C807        H820   1.084       .  S
C808        C809   1.405       .  A
C808        C811   1.476       .  S
C809        C810   1.404       .  A
C809        H821   1.083       .  S
C810        H822   1.083       .  S
C811        C812   1.342   1_556  D
C811        H823   1.089   1_556  S
C812        C813   1.473       .  S
C812        H824   1.087   1_554  S
C813        C814   1.404       .  A
C813        C818   1.398       .  A
C814        C815   1.403       .  A
C814        H825   1.083       .  S
C815        C816   1.407       .  A
C815        H826   1.083       .  S
C816        C817   1.405       .  A
C817        C818   1.391       .  A
C817        H827   1.082       .  S
C818        H828   1.084       .  S
C829        C830   1.401       .  A
C829        C834   1.404       .  A
C830        C831   1.399       .  A
C830        H843   1.083       .  S
C831        C832   1.403       .  A
C831        H844   1.083       .  S
C832        C833   1.403       .  A
C832        C835   1.473       .  S
C833        C834   1.392       .  A
C833        H845   1.083       .  S
C834        H846   1.083       .  S
C835        C836   1.344       .  D
C835        H847   1.087       .  S
C836        C837   1.472       .  S
C836        H848   1.087       .  S
C837        C838   1.402       .  A
C837        C842   1.401       .  A
C838        C839   1.399       .  A
C838        H849   1.080       .  S
C839        C840   1.403       .  A
C839        H850   1.083       .  S
C840        C841   1.406       .  A
C841        C842   1.390       .  A
C841        H851   1.083       .  S
C842        H852   1.084       .  S
C853        C854   1.403       .  A
C853        C858   1.404       .  A
C854        C855   1.397       .  A
C854        H867   1.083       .  S
C855        C856   1.404       .  A
C855        H868   1.083       .  S
C856        C857   1.405       .  A
C856        C859   1.480       .  S
C857        C858   1.398       .  A
C857        H869   1.082       .  S
C858        H870   1.083       .  S
C859        C860   1.350       .  D
C859        H871   1.082       .  S
C860        C861   1.491       .  S
C860        H872   1.087       .  S
C861        C862   1.409       .  A
C861        C866   1.408       .  A
C862        C863   1.404       .  A
C862        H873   1.083       .  S
C863        C864   1.402       .  A
C863        H874   1.083       .  S
C864        C865   1.400       .  A
C865        C866   1.392       .  A
C865        H875   1.084       .  S
C866        H876   1.079       .  S
C877        C878   1.405       .  A
C877        C882   1.404       .  A
C878        C879   1.399       .  A
C878        H891   1.083       .  S
C879        C880   1.405       .  A
C879        H892   1.082       .  S
C880        C881   1.401       .  A
C880        C883   1.477       .  S
C881        C882   1.394       .  A
C881        H893   1.083       .  S
C882        H894   1.082       .  S
C883        C884   1.349       .  D
C883        H895   1.085       .  S
C884        C885   1.487       .  S
C884        H896   1.087       .  S
C885        C886   1.407       .  A
C885        C890   1.406       .  A
C886        C887   1.404       .  A
C886        H897   1.083       .  S
C887        C888   1.403       .  A
C887        H898   1.083       .  S
C888        C889   1.401       .  A
C889        C890   1.391       .  A
C889        H899   1.084       .  S
C890        H900   1.081       .  S
C901        C902   1.403       .  A
C901        C906   1.405       .  A
C902        C903   1.402       .  A
C902        H915   1.083       .  S
C903        C904   1.405       .  A
C903        H916   1.081       .  S
C904        C905   1.404       .  A
C904        C907   1.482       .  S
C905        C906   1.393       .  A
C905        H917   1.082       .  S
C906        H918   1.083       .  S
C907        C908   1.348       .  D
C907        H919   1.086       .  S
C908        C909   1.480       .  S
C908        H920   1.086       .  S
C909        C910   1.405       .  A
C909        C914   1.405       .  A
C910        C911   1.400       .  A
C910        H921   1.083       .  S
C911        C912   1.401       .  A
C911        H922   1.083       .  S
C912        C913   1.402       .  A
C913        C914   1.392       .  A
C913        H923   1.083       .  S
C914        H924   1.082       .  S
C925        C926   1.401       .  A
C925        C930   1.406       .  A
C926        C927   1.388       .  A
C926        H939   1.083       .  S
C927        C928   1.399       .  A
C927        H940   1.084       .  S
C928        C929   1.404       .  A
C928        C931   1.471       .  S
C929        C930   1.406       .  A
C929        H941   1.083       .  S
C930        H942   1.083       .  S
C931        C932   1.343   1_655  D
C931        H943   1.088   1_655  S
C932        C933   1.480       .  S
C932        H944   1.086   1_455  S
C933        C934   1.405       .  A
C933        C938   1.403       .  A
C934        C935   1.407       .  A
C934        H945   1.083       .  S
C935        C936   1.407       .  A
C935        H946   1.083       .  S
C936        C937   1.400       .  A
C937        C938   1.385       .  A
C937        H947   1.082       .  S
C938        H948   1.083       .  S
C949        C950   1.399       .  A
C949        C954   1.401       .  A
C950        C951   1.399       .  A
C950        H963   1.083       .  S
C951        C952   1.408       .  A
C951        H964   1.082       .  S
C952        C953   1.408       .  A
C952        C955   1.487       .  S
C953        C954   1.393       .  A
C953        H965   1.080       .  S
C954        H966   1.084       .  S
C955        C956   1.349       .  D
C955        H967   1.086       .  S
C956        C957   1.483       .  S
C956        H968   1.083       .  S
C957        C958   1.405       .  A
C957        C962   1.406       .  A
C958        C959   1.399       .  A
C958        H969   1.083       .  S
C959        C960   1.401       .  A
C959        H970   1.083       .  S
C960        C961   1.403       .  A
C961        C962   1.393       .  A
C961        H971   1.083       .  S
C962        H972   1.082       .  S
C973        C974   1.401       .  A
C973        C978   1.404       .  A
C974        C975   1.393       .  A
C974        H987   1.082       .  S
C975        C976   1.402       .  A
C975        H988   1.083       .  S
C976        C977   1.406       .  A
C976        C979   1.477       .  S
C977        C978   1.397       .  A
C977        H989   1.082       .  S
C978        H990   1.083       .  S
C979        C980   1.348       .  D
C979        H991   1.084       .  S
C980        C981   1.486       .  S
C980        H992   1.086       .  S
C981        C982   1.407       .  A
C981        C986   1.405       .  A
C982        C983   1.405       .  A
C982        H993   1.082       .  S
C983        C984   1.404       .  A
C983        H994   1.083       .  S
C984        C985   1.403       .  A
C985        C986   1.387       .  A
C985        H995   1.083       .  S
C986        H996   1.081       .  S
C997        C998   1.402       .  A
C997       C1002   1.401       .  A
C998        C999   1.397       .  A
C998       H1011   1.083       .  S
C999       C1000   1.402       .  A
C999       H1012   1.083       .  S
C1000      C1001   1.409       .  A
C1000      C1003   1.482       .  S
C1001      C1002   1.396       .  A
C1001      H1013   1.082       .  S
C1002      H1014   1.083       .  S
C1003      C1004   1.344       .  D
C1003      H1015   1.087       .  S
C1004      C1005   1.473       .  S
C1004      H1016   1.085       .  S
C1005      C1006   1.399       .  A
C1005      C1010   1.406       .  A
C1006      C1007   1.392       .  A
C1006      H1017   1.084       .  S
C1007      C1008   1.402       .  A
C1007      H1018   1.084       .  S
C1008      C1009   1.402       .  A
C1009      C1010   1.402       .  A
C1009      H1019   1.083       .  S
C1010      H1020   1.083       .  S
C1021      C1022   1.401       .  A
C1021      C1026   1.400       .  A
C1022      C1023   1.391       .  A
C1022      H1035   1.082       .  S
C1023      C1024   1.401       .  A
C1023      H1036   1.083       .  S
C1024      C1025   1.409       .  A
C1024      C1027   1.477       .  S
C1025      C1026   1.397       .  A
C1025      H1037   1.081       .  S
C1026      H1038   1.083       .  S
C1027      C1028   1.341       .  D
C1027      H1039   1.087       .  S
C1028      C1029   1.475       .  S
C1028      H1040   1.085       .  S
C1029      C1030   1.399       .  A
C1029      C1034   1.409       .  A
C1030      C1031   1.391       .  A
C1030      H1041   1.084       .  S
C1031      C1032   1.404       .  A
C1031      H1042   1.084       .  S
C1032      C1033   1.398       .  A
C1033      C1034   1.397       .  A
C1033      H1043   1.083       .  S
C1034      H1044   1.081       .  S
C1045      C1046   1.400       .  A
C1045      C1050   1.407       .  A
C1046      C1047   1.388       .  A
C1046      H1059   1.083       .  S
C1047      C1048   1.399       .  A
C1047      H1060   1.084       .  S
C1048      C1049   1.406       .  A
C1048      C1051   1.475       .  S
C1049      C1050   1.409       .  A
C1049      H1061   1.083       .  S
C1050      H1062   1.083       .  S
C1051      C1052   1.344   1_556  D
C1051      H1063   1.088   1_556  S
C1052      C1053   1.487       .  S
C1052      H1064   1.086       .  S
C1053      C1054   1.407       .  A
C1053      C1058   1.406       .  A
C1054      C1055   1.408       .  A
C1054      H1065   1.083       .  S
C1055      C1056   1.405       .  A
C1055      H1066   1.083       .  S
C1056      C1057   1.400       .  A
C1057      C1058   1.389       .  A
C1057      H1067   1.083       .  S
C1058      H1068   1.083       .  S
C1069      C1070   1.404       .  A
C1069      C1074   1.408       .  A
C1070      C1071   1.393       .  A
C1070      H1083   1.081       .  S
C1071      C1072   1.404       .  A
C1071      H1084   1.084       .  S
C1072      C1073   1.401       .  A
C1072      C1075   1.477       .  S
C1073      C1074   1.401       .  A
C1073      H1085   1.083       .  S
C1074      H1086   1.082       .  S
C1075      C1076   1.343   1_455  D
C1075      H1087   1.087       .  S
C1076      C1077   1.478       .  S
C1076      H1088   1.087       .  S
C1077      C1078   1.403       .  A
C1077      C1082   1.403       .  A
C1078      C1079   1.403       .  A
C1078      H1089   1.083       .  S
C1079      C1080   1.408       .  A
C1079      H1090   1.083       .  S
C1080      C1081   1.403       .  A
C1081      C1082   1.390       .  A
C1081      H1091   1.081       .  S
C1082      H1092   1.083       .  S
C1093      C1094   1.401       .  A
C1093      C1098   1.402       .  A
C1094      C1095   1.398       .  A
C1094      H1107   1.083       .  S
C1095      C1096   1.402       .  A
C1095      H1108   1.083       .  S
C1096      C1097   1.404       .  A
C1096      C1099   1.472       .  S
C1097      C1098   1.391       .  A
C1097      H1109   1.083       .  S
C1098      H1110   1.082       .  S
C1099      C1100   1.344       .  D
C1099      H1111   1.087       .  S
C1100      C1101   1.475       .  S
C1100      H1112   1.087       .  S
C1101      C1102   1.404       .  A
C1101      C1106   1.402       .  A
C1102      C1103   1.401       .  A
C1102      H1113   1.082       .  S
C1103      C1104   1.404       .  A
C1103      H1114   1.083       .  S
C1104      C1105   1.403       .  A
C1105      C1106   1.387       .  A
C1105      H1115   1.083       .  S
C1106      H1116   1.083       .  S
C1117      C1118   1.401       .  A
C1117      C1122   1.404       .  A
C1118      C1119   1.397       .  A
C1118      H1131   1.083       .  S
C1119      C1120   1.403       .  A
C1119      H1132   1.083       .  S
C1120      C1121   1.406       .  A
C1120      C1123   1.480       .  S
C1121      C1122   1.398       .  A
C1121      H1133   1.083       .  S
C1122      H1134   1.083       .  S
C1123      C1124   1.348       .  D
C1123      H1135   1.085       .  S
C1124      C1125   1.486       .  S
C1124      H1136   1.087       .  S
C1125      C1126   1.407       .  A
C1125      C1130   1.405       .  A
C1126      C1127   1.404       .  A
C1126      H1137   1.083       .  S
C1127      C1128   1.401       .  A
C1127      H1138   1.083       .  S
C1128      C1129   1.404       .  A
C1129      C1130   1.394       .  A
C1129      H1139   1.084       .  S
C1130      H1140   1.082       .  S
C1141      C1142   1.403       .  A
C1141      C1146   1.404       .  A
C1142      C1143   1.397       .  A
C1142      H1155   1.083       .  S
C1143      C1144   1.403       .  A
C1143      H1156   1.083       .  S
C1144      C1145   1.403       .  A
C1144      C1147   1.476       .  S
C1145      C1146   1.395       .  A
C1145      H1157   1.083       .  S
C1146      H1158   1.083       .  S
C1147      C1148   1.350       .  D
C1147      H1159   1.083       .  S
C1148      C1149   1.486       .  S
C1148      H1160   1.087       .  S
C1149      C1150   1.407       .  A
C1149      C1154   1.406       .  A
C1150      C1151   1.403       .  A
C1150      H1161   1.082       .  S
C1151      C1152   1.402       .  A
C1151      H1162   1.083       .  S
C1152      C1153   1.401       .  A
C1153      C1154   1.391       .  A
C1153      H1163   1.084       .  S
C1154      H1164   1.080       .  S
C1165      C1166   1.401       .  A
C1165      C1170   1.402       .  A
C1166      C1167   1.391       .  A
C1166      H1179   1.083       .  S
C1167      C1168   1.400       .  A
C1167      H1180   1.083       .  S
C1168      C1169   1.409       .  A
C1168      C1171   1.477       .  S
C1169      C1170   1.401       .  A
C1169      H1181   1.082       .  S
C1170      H1182   1.083       .  S
C1171      C1172   1.344       .  D
C1171      H1183   1.086       .  S
C1172      C1173   1.483       .  S
C1172      H1184   1.086       .  S
C1173      C1174   1.405       .  A
C1173      C1178   1.406       .  A
C1174      C1175   1.401       .  A
C1174      H1185   1.082       .  S
C1175      C1176   1.403       .  A
C1175      H1186   1.083       .  S
C1176      C1177   1.401       .  A
C1177      C1178   1.390       .  A
C1177      H1187   1.084       .  S
C1178      H1188   1.082       .  S
C1189      C1190   1.406       .  A
C1189      C1194   1.403       .  A
C1190      C1191   1.399       .  A
C1190      H1203   1.083       .  S
C1191      C1192   1.404       .  A
C1191      H1204   1.082       .  S
C1192      C1193   1.404       .  A
C1192      C1195   1.480       .  S
C1193      C1194   1.397       .  A
C1193      H1205   1.083       .  S
C1194      H1206   1.083       .  S
C1195      C1196   1.351       .  D
C1195      H1207   1.083       .  S
C1196      C1197   1.492       .  S
C1196      H1208   1.086       .  S
C1197      C1198   1.410       .  A
C1197      C1202   1.407       .  A
C1198      C1199   1.407       .  A
C1198      H1209   1.083       .  S
C1199      C1200   1.404       .  A
C1199      H1210   1.083       .  S
C1200      C1201   1.400       .  A
C1201      C1202   1.390       .  A
C1201      H1211   1.084       .  S
C1202      H1212   1.080       .  S
C1213      C1214   1.399       .  A
C1213      C1218   1.403       .  A
C1214      C1215   1.395       .  A
C1214      H1227   1.083       .  S
C1215      C1216   1.403       .  A
C1215      H1228   1.083       .  S
C1216      C1217   1.406       .  A
C1216      C1219   1.475       .  S
C1217      C1218   1.393       .  A
C1217      H1229   1.082       .  S
C1218      H1230   1.083       .  S
C1219      C1220   1.346       .  D
C1219      H1231   1.085       .  S
C1220      C1221   1.479       .  S
C1220      H1232   1.086       .  S
C1221      C1222   1.406       .  A
C1221      C1226   1.406       .  A
C1222      C1223   1.400       .  A
C1222      H1233   1.082       .  S
C1223      C1224   1.401       .  A
C1223      H1234   1.083       .  S
C1224      C1225   1.398       .  A
C1225      C1226   1.386       .  A
C1225      H1235   1.084       .  S
C1226      H1236   1.081       .  S
C1237      C1238   1.404       .  A
C1237      C1242   1.404       .  A
C1238      C1239   1.403       .  A
C1238      H1251   1.083       .  S
C1239      C1240   1.406       .  A
C1239      H1252   1.082       .  S
C1240      C1241   1.405       .  A
C1240      C1243   1.485       .  S
C1241      C1242   1.393       .  A
C1241      H1253   1.082       .  S
C1242      H1254   1.083       .  S
C1243      C1244   1.349       .  D
C1243      H1255   1.086       .  S
C1244      C1245   1.483       .  S
C1244      H1256   1.086       .  S
C1245      C1246   1.405       .  A
C1245      C1250   1.405       .  A
C1246      C1247   1.399       .  A
C1246      H1257   1.083       .  S
C1247      C1248   1.401       .  A
C1247      H1258   1.083       .  S
C1248      C1249   1.405       .  A
C1249      C1250   1.395       .  A
C1249      H1259   1.083       .  S
C1250      H1260   1.082       .  S
C1261      C1262   1.403       .  A
C1261      C1266   1.404       .  A
C1262      C1263   1.395       .  A
C1262      H1275   1.083       .  S
C1263      C1264   1.402       .  A
C1263      H1276   1.083       .  S
C1264      C1265   1.404       .  A
C1264      C1267   1.474       .  S
C1265      C1266   1.396       .  A
C1265      H1277   1.083       .  S
C1266      H1278   1.083       .  S
C1267      C1268   1.348       .  D
C1267      H1279   1.084       .  S
C1268      C1269   1.485       .  S
C1268      H1280   1.087       .  S
C1269      C1270   1.407       .  A
C1269      C1274   1.406       .  A
C1270      C1271   1.403       .  A
C1270      H1281   1.083       .  S
C1271      C1272   1.402       .  A
C1271      H1282   1.083       .  S
C1272      C1273   1.401       .  A
C1273      C1274   1.391       .  A
C1273      H1283   1.084       .  S
C1274      H1284   1.081       .  S
C1285      C1286   1.406       .  A
C1285      C1290   1.403       .  A
C1286      C1287   1.405       .  A
C1286      H1299   1.083       .  S
C1287      C1288   1.406       .  A
C1287      H1300   1.083       .  S
C1288      C1289   1.398       .  A
C1288      C1291   1.473       .  S
C1289      C1290   1.388       .  A
C1289      H1301   1.084       .  S
C1290      H1302   1.082       .  S
C1291      C1292   1.340   1_554  D
C1291      H1303   1.089   1_554  S
C1292      C1293   1.471       .  S
C1292      H1304   1.087       .  S
C1293      C1294   1.400       .  A
C1293      C1298   1.403       .  A
C1294      C1295   1.389       .  A
C1294      H1305   1.084       .  S
C1295      C1296   1.401       .  A
C1295      H1306   1.083       .  S
C1296      C1297   1.406       .  A
C1297      C1298   1.404       .  A
C1297      H1307   1.083       .  S
C1298      H1308   1.083       .  S
C1309      C1310   1.405       .  A
C1309      C1314   1.403       .  A
C1310      C1311   1.403       .  A
C1310      H1323   1.083       .  S
C1311      C1312   1.405       .  A
C1311      H1324   1.082       .  S
C1312      C1313   1.404       .  A
C1312      C1315   1.481       .  S
C1313      C1314   1.390       .  A
C1313      H1325   1.083       .  S
C1314      H1326   1.083       .  S
C1315      C1316   1.348       .  D
C1315      H1327   1.086       .  S
C1316      C1317   1.479       .  S
C1316      H1328   1.086       .  S
C1317      C1318   1.405       .  A
C1317      C1322   1.405       .  A
C1318      C1319   1.399       .  A
C1318      H1329   1.083       .  S
C1319      C1320   1.401       .  A
C1319      H1330   1.083       .  S
C1320      C1321   1.404       .  A
C1321      C1322   1.393       .  A
C1321      H1331   1.083       .  S
C1322      H1332   1.082       .  S
C1333      C1334   1.403       .  A
C1333      C1338   1.402       .  A
C1334      C1335   1.404       .  A
C1334      H1347   1.083       .  S
C1335      C1336   1.406       .  A
C1335      H1348   1.083       .  S
C1336      C1337   1.405       .  A
C1336      C1339   1.482       .  S
C1337      C1338   1.391       .  A
C1337      H1349   1.082       .  S
C1338      H1350   1.084       .  S
C1339      C1340   1.347       .  D
C1339      H1351   1.087       .  S
C1340      C1341   1.473       .  S
C1340      H1352   1.086       .  S
C1341      C1342   1.401       .  A
C1341      C1346   1.404       .  A
C1342      C1343   1.393       .  A
C1342      H1353   1.084       .  S
C1343      C1344   1.403       .  A
C1343      H1354   1.082       .  S
C1344      C1345   1.404       .  A
C1345      C1346   1.397       .  A
C1345      H1355   1.083       .  S
C1346      H1356   1.083       .  S
C1357      C1358   1.401       .  A
C1357      C1362   1.403       .  A
C1358      C1359   1.396       .  A
C1358      H1371   1.083       .  S
C1359      C1360   1.403       .  A
C1359      H1372   1.083       .  S
C1360      C1361   1.406       .  A
C1360      C1363   1.480       .  S
C1361      C1362   1.398       .  A
C1361      H1373   1.083       .  S
C1362      H1374   1.083       .  S
C1363      C1364   1.348       .  D
C1363      H1375   1.086       .  S
C1364      C1365   1.486       .  S
C1364      H1376   1.087       .  S
C1365      C1366   1.408       .  A
C1365      C1370   1.404       .  A
C1366      C1367   1.406       .  A
C1366      H1377   1.083       .  S
C1367      C1368   1.404       .  A
C1367      H1378   1.083       .  S
C1368      C1369   1.404       .  A
C1369      C1370   1.392       .  A
C1369      H1379   1.083       .  S
C1370      H1380   1.082       .  S
C1381      C1382   1.403       .  A
C1381      C1386   1.401       .  A
C1382      C1383   1.392       .  A
C1382      H1395   1.083       .  S
C1383      C1384   1.400       .  A
C1383      H1396   1.083       .  S
C1384      C1385   1.405       .  A
C1384      C1387   1.471       .  S
C1385      C1386   1.399       .  A
C1385      H1397   1.083       .  S
C1386      H1398   1.083       .  S
C1387      C1388   1.344       .  D
C1387      H1399   1.088       .  S
C1388      C1389   1.477       .  S
C1388      H1400   1.086       .  S
C1389      C1390   1.405       .  A
C1389      C1394   1.400       .  A
C1390      C1391   1.406       .  A
C1390      H1401   1.082       .  S
C1391      C1392   1.406       .  A
C1391      H1402   1.083       .  S
C1392      C1393   1.406       .  A
C1393      C1394   1.387       .  A
C1393      H1403   1.083       .  S
C1394      H1404   1.083       .  S
C1405      C1406   1.407       .  A
C1405      C1410   1.401       .  A
C1406      C1407   1.404       .  A
C1406      H1419   1.083       .  S
C1407      C1408   1.403       .  A
C1407      H1420   1.083       .  S
C1408      C1409   1.406       .  A
C1408      C1411   1.482       .  S
C1409      C1410   1.390       .  A
C1409      H1421   1.083       .  S
C1410      H1422   1.083       .  S
C1411      C1412   1.342   1_545  D
C1411      H1423   1.087       .  S
C1412      C1413   1.472       .  S
C1412      H1424   1.088   1_565  S
C1413      C1414   1.398       .  A
C1413      C1418   1.406       .  A
C1414      C1415   1.387       .  A
C1414      H1425   1.084       .  S
C1415      C1416   1.402       .  A
C1415      H1426   1.082       .  S
C1416      C1417   1.407       .  A
C1417      C1418   1.407       .  A
C1417      H1427   1.083       .  S
C1418      H1428   1.083       .  S
C1429      C1430   1.401       .  A
C1429      C1434   1.403       .  A
C1430      C1431   1.396       .  A
C1430      H1443   1.083       .  S
C1431      C1432   1.402       .  A
C1431      H1444   1.083       .  S
C1432      C1433   1.404       .  A
C1432      C1435   1.473       .  S
C1433      C1434   1.397       .  A
C1433      H1445   1.083       .  S
C1434      H1446   1.083       .  S
C1435      C1436   1.347       .  D
C1435      H1447   1.086       .  S
C1436      C1437   1.482       .  S
C1436      H1448   1.087       .  S
C1437      C1438   1.407       .  A
C1437      C1442   1.399       .  A
C1438      C1439   1.408       .  A
C1438      H1449   1.082       .  S
C1439      C1440   1.405       .  A
C1439      H1450   1.083       .  S
C1440      C1441   1.408       .  A
C1441      C1442   1.389       .  A
C1441      H1451   1.083       .  S
C1442      H1452   1.083       .  S
C1453      C1454   1.401       .  A
C1453      C1458   1.401       .  A
C1454      C1455   1.388       .  A
C1454      H1467   1.082       .  S
C1455      C1456   1.404       .  A
C1455      H1468   1.083       .  S
C1456      C1457   1.402       .  A
C1456      C1459   1.469       .  S
C1457      C1458   1.397       .  A
C1457      H1469   1.083       .  S
C1458      H1470   1.083       .  S
C1459      C1460   1.343       .  D
C1459      H1471   1.087       .  S
C1460      C1461   1.472       .  S
C1460      H1472   1.087       .  S
C1461      C1462   1.402       .  A
C1461      C1466   1.403       .  A
C1462      C1463   1.387       .  A
C1462      H1473   1.083       .  S
C1463      C1464   1.403       .  A
C1463      H1474   1.083       .  S
C1464      C1465   1.404       .  A
C1465      C1466   1.400       .  A
C1465      H1475   1.083       .  S
C1466      H1476   1.082       .  S
C1477      C1478   1.400       .  A
C1477      C1482   1.400       .  A
C1478      C1479   1.396       .  A
C1478      H1491   1.083       .  S
C1479      C1480   1.404       .  A
C1479      H1492   1.083       .  S
C1480      C1481   1.406       .  A
C1480      C1483   1.475       .  S
C1481      C1482   1.390       .  A
C1481      H1493   1.081       .  S
C1482      H1494   1.083       .  S
C1483      C1484   1.345       .  D
C1483      H1495   1.086       .  S
C1484      C1485   1.476       .  S
C1484      H1496   1.086       .  S
C1485      C1486   1.404       .  A
C1485      C1490   1.405       .  A
C1486      C1487   1.398       .  A
C1486      H1497   1.081       .  S
C1487      C1488   1.401       .  A
C1487      H1498   1.083       .  S
C1488      C1489   1.402       .  A
C1489      C1490   1.389       .  A
C1489      H1499   1.083       .  S
C1490      H1500   1.082       .  S
C1501      C1502   1.403       .  A
C1501      C1506   1.404       .  A
C1502      C1503   1.395       .  A
C1502      H1515   1.083       .  S
C1503      C1504   1.402       .  A
C1503      H1516   1.083       .  S
C1504      C1505   1.403       .  A
C1504      C1507   1.472       .  S
C1505      C1506   1.395       .  A
C1505      H1517   1.083       .  S
C1506      H1518   1.083       .  S
C1507      C1508   1.348       .  D
C1507      H1519   1.083       .  S
C1508      C1509   1.484       .  S
C1508      H1520   1.087       .  S
C1509      C1510   1.407       .  A
C1509      C1514   1.406       .  A
C1510      C1511   1.403       .  A
C1510      H1521   1.083       .  S
C1511      C1512   1.401       .  A
C1511      H1522   1.083       .  S
C1512      C1513   1.401       .  A
C1513      C1514   1.389       .  A
C1513      H1523   1.084       .  S
C1514      H1524   1.081       .  S
C1525      C1526   1.407       .  A
C1525      C1530   1.402       .  A
C1526      C1527   1.405       .  A
C1526      H1539   1.083       .  S
C1527      C1528   1.405       .  A
C1527      H1540   1.083       .  S
C1528      C1529   1.399       .  A
C1528      C1531   1.472       .  S
C1529      C1530   1.388       .  A
C1529      H1541   1.084       .  S
C1530      H1542   1.082       .  S
C1531      C1532   1.343   1_545  D
C1531      H1543   1.088   1_545  S
C1532      C1533   1.482       .  S
C1532      H1544   1.086       .  S
C1533      C1534   1.405       .  A
C1533      C1538   1.405       .  A
C1534      C1535   1.386       .  A
C1534      H1545   1.083       .  S
C1535      C1536   1.400       .  A
C1535      H1546   1.083       .  S
C1536      C1537   1.407       .  A
C1537      C1538   1.405       .  A
C1537      H1547   1.083       .  S
C1538      H1548   1.083       .  S
C1549      C1550   1.407       .  A
C1549      C1554   1.401       .  A
C1550      C1551   1.406       .  A
C1550      H1563   1.083       .  S
C1551      C1552   1.404       .  A
C1551      H1564   1.083       .  S
C1552      C1553   1.399       .  A
C1552      C1555   1.473       .  S
C1553      C1554   1.388       .  A
C1553      H1565   1.084       .  S
C1554      H1566   1.082       .  S
C1555      C1556   1.341   1_556  D
C1555      H1567   1.087   1_556  S
C1556      C1557   1.476       .  S
C1556      H1568   1.089   1_554  S
C1557      C1558   1.399       .  A
C1557      C1562   1.406       .  A
C1558      C1559   1.390       .  A
C1558      H1569   1.084       .  S
C1559      C1560   1.404       .  A
C1559      H1570   1.082       .  S
C1560      C1561   1.408       .  A
C1561      C1562   1.405       .  A
C1561      H1571   1.083       .  S
C1562      H1572   1.083       .  S
C1573      C1574   1.402       .  A
C1573      C1578   1.401       .  A
C1574      C1575   1.389       .  A
C1574      H1587   1.083       .  S
C1575      C1576   1.403       .  A
C1575      H1588   1.083       .  S
C1576      C1577   1.403       .  A
C1576      C1579   1.471       .  S
C1577      C1578   1.399       .  A
C1577      H1589   1.083       .  S
C1578      H1590   1.083       .  S
C1579      C1580   1.344       .  D
C1579      H1591   1.086       .  S
C1580      C1581   1.475       .  S
C1580      H1592   1.087       .  S
C1581      C1582   1.404       .  A
C1581      C1586   1.402       .  A
C1582      C1583   1.401       .  A
C1582      H1593   1.081       .  S
C1583      C1584   1.402       .  A
C1583      H1594   1.083       .  S
C1584      C1585   1.405       .  A
C1585      C1586   1.388       .  A
C1585      H1595   1.083       .  S
C1586      H1596   1.082       .  S
C1597      C1598   1.403       .  A
C1597      C1602   1.404       .  A
C1598      C1599   1.399       .  A
C1598      H1611   1.083       .  S
C1599      C1600   1.403       .  A
C1599      H1612   1.083       .  S
C1600      C1601   1.407       .  A
C1600      C1603   1.484       .  S
C1601      C1602   1.398       .  A
C1601      H1613   1.082       .  S
C1602      H1614   1.083       .  S
C1603      C1604   1.349       .  D
C1603      H1615   1.086       .  S
C1604      C1605   1.487       .  S
C1604      H1616   1.087       .  S
C1605      C1606   1.407       .  A
C1605      C1610   1.406       .  A
C1606      C1607   1.403       .  A
C1606      H1617   1.083       .  S
C1607      C1608   1.401       .  A
C1607      H1618   1.083       .  S
C1608      C1609   1.404       .  A
C1609      C1610   1.396       .  A
C1609      H1619   1.084       .  S
C1610      H1620   1.082       .  S
C1621      C1622   1.401       .  A
C1621      C1626   1.405       .  A
C1622      C1623   1.398       .  A
C1622      H1635   1.083       .  S
C1623      C1624   1.404       .  A
C1623      H1636   1.083       .  S
C1624      C1625   1.405       .  A
C1624      C1627   1.481       .  S
C1625      C1626   1.397       .  A
C1625      H1637   1.082       .  S
C1626      H1638   1.082       .  S
C1627      C1628   1.347       .  D
C1627      H1639   1.086       .  S
C1628      C1629   1.483       .  S
C1628      H1640   1.086       .  S
C1629      C1630   1.404       .  A
C1629      C1634   1.405       .  A
C1630      C1631   1.401       .  A
C1630      H1641   1.082       .  S
C1631      C1632   1.404       .  A
C1631      H1642   1.083       .  S
C1632      C1633   1.405       .  A
C1633      C1634   1.394       .  A
C1633      H1643   1.083       .  S
C1634      H1644   1.083       .  S
C1645      C1646   1.402       .  A
C1645      C1650   1.404       .  A
C1646      C1647   1.395       .  A
C1646      H1659   1.083       .  S
C1647      C1648   1.401       .  A
C1647      H1660   1.083       .  S
C1648      C1649   1.407       .  A
C1648      C1651   1.478       .  S
C1649      C1650   1.399       .  A
C1649      H1661   1.083       .  S
C1650      H1662   1.083       .  S
C1651      C1652   1.346       .  D
C1651      H1663   1.085       .  S
C1652      C1653   1.483       .  S
C1652      H1664   1.087       .  S
C1653      C1654   1.402       .  A
C1653      C1658   1.409       .  A
C1654      C1655   1.397       .  A
C1654      H1665   1.083       .  S
C1655      C1656   1.402       .  A
C1655      H1666   1.084       .  S
C1656      C1657   1.401       .  A
C1657      C1658   1.400       .  A
C1657      H1667   1.083       .  S
C1658      H1668   1.082       .  S
C1669      C1670   1.402       .  A
C1669      C1674   1.402       .  A
C1670      C1671   1.399       .  A
C1670      H1683   1.083       .  S
C1671      C1672   1.404       .  A
C1671      H1684   1.083       .  S
C1672      C1673   1.404       .  A
C1672      C1675   1.476       .  S
C1673      C1674   1.390       .  A
C1673      H1685   1.083       .  S
C1674      H1686   1.083       .  S
C1675      C1676   1.347       .  D
C1675      H1687   1.086       .  S
C1676      C1677   1.479       .  S
C1676      H1688   1.087       .  S
C1677      C1678   1.406       .  A
C1677      C1682   1.403       .  A
C1678      C1679   1.401       .  A
C1678      H1689   1.080       .  S
C1679      C1680   1.401       .  A
C1679      H1690   1.083       .  S
C1680      C1681   1.405       .  A
C1681      C1682   1.389       .  A
C1681      H1691   1.083       .  S
C1682      H1692   1.082       .  S
C1693      C1694   1.403       .  A
C1693      C1698   1.403       .  A
C1694      C1695   1.398       .  A
C1694      H1707   1.083       .  S
C1695      C1696   1.407       .  A
C1695      H1708   1.082       .  S
C1696      C1697   1.403       .  A
C1696      C1699   1.482       .  S
C1697      C1698   1.396       .  A
C1697      H1709   1.083       .  S
C1698      H1710   1.083       .  S
C1699      C1700   1.350       .  D
C1699      H1711   1.082       .  S
C1700      C1701   1.492       .  S
C1700      H1712   1.086       .  S
C1701      C1702   1.409       .  A
C1701      C1706   1.407       .  A
C1702      C1703   1.404       .  A
C1702      H1713   1.083       .  S
C1703      C1704   1.401       .  A
C1703      H1714   1.083       .  S
C1704      C1705   1.404       .  A
C1705      C1706   1.392       .  A
C1705      H1715   1.084       .  S
C1706      H1716   1.079       .  S
C1717      C1718   1.403       .  A
C1717      C1722   1.402       .  A
C1718      C1719   1.395       .  A
C1718      H1731   1.083       .  S
C1719      C1720   1.402       .  A
C1719      H1732   1.083       .  S
C1720      C1721   1.405       .  A
C1720      C1723   1.474       .  S
C1721      C1722   1.395       .  A
C1721      H1733   1.082       .  S
C1722      H1734   1.083       .  S
C1723      C1724   1.347       .  D
C1723      H1735   1.085       .  S
C1724      C1725   1.478       .  S
C1724      H1736   1.087       .  S
C1725      C1726   1.405       .  A
C1725      C1730   1.405       .  A
C1726      C1727   1.400       .  A
C1726      H1737   1.083       .  S
C1727      C1728   1.401       .  A
C1727      H1738   1.083       .  S
C1728      C1729   1.401       .  A
C1729      C1730   1.391       .  A
C1729      H1739   1.084       .  S
C1730      H1740   1.082       .  S
C1741      C1742   1.403       .  A
C1741      C1746   1.402       .  A
C1742      C1743   1.403       .  A
C1742      H1755   1.083       .  S
C1743      C1744   1.407       .  A
C1743      H1756   1.082       .  S
C1744      C1745   1.406       .  A
C1744      C1747   1.486       .  S
C1745      C1746   1.391       .  A
C1745      H1757   1.081       .  S
C1746      H1758   1.083       .  S
C1747      C1748   1.349       .  D
C1747      H1759   1.085       .  S
C1748      C1749   1.483       .  S
C1748      H1760   1.085       .  S
C1749      C1750   1.406       .  A
C1749      C1754   1.407       .  A
C1750      C1751   1.397       .  A
C1750      H1761   1.083       .  S
C1751      C1752   1.399       .  A
C1751      H1762   1.083       .  S
C1752      C1753   1.404       .  A
C1753      C1754   1.396       .  A
C1753      H1763   1.082       .  S
C1754      H1764   1.081       .  S
C1765      C1766   1.400       .  A
C1765      C1770   1.407       .  A
C1766      C1767   1.386       .  A
C1766      H1779   1.083       .  S
C1767      C1768   1.399       .  A
C1767      H1780   1.084       .  S
C1768      C1769   1.408       .  A
C1768      C1771   1.476   1_545  S
C1769      C1770   1.408       .  A
C1769      H1781   1.083       .  S
C1770      H1782   1.083       .  S
C1771      C1772   1.344       .  D
C1771      H1783   1.088       .  S
C1772      C1773   1.484       .  S
C1772      H1784   1.086       .  S
C1773      C1774   1.405       .  A
C1773      C1778   1.406       .  A
C1774      C1775   1.406       .  A
C1774      H1785   1.083       .  S
C1775      C1776   1.405       .  A
C1775      H1786   1.083       .  S
C1776      C1777   1.399       .  A
C1777      C1778   1.387       .  A
C1777      H1787   1.084       .  S
C1778      H1788   1.083       .  S
C1789      C1790   1.401       .  A
C1789      C1794   1.404       .  A
C1790      C1791   1.401       .  A
C1790      H1803   1.083       .  S
C1791      C1792   1.407       .  A
C1791      H1804   1.083       .  S
C1792      C1793   1.406       .  A
C1792      C1795   1.487       .  S
C1793      C1794   1.395       .  A
C1793      H1805   1.081       .  S
C1794      H1806   1.082       .  S
C1795      C1796   1.352       .  D
C1795      H1807   1.085       .  S
C1796      C1797   1.489       .  S
C1796      H1808   1.085       .  S
C1797      C1798   1.408       .  A
C1797      C1802   1.405       .  A
C1798      C1799   1.405       .  A
C1798      H1809   1.082       .  S
C1799      C1800   1.403       .  A
C1799      H1810   1.083       .  S
C1800      C1801   1.404       .  A
C1801      C1802   1.393       .  A
C1801      H1811   1.083       .  S
C1802      H1812   1.081       .  S
C1813      C1814   1.404       .  A
C1813      C1818   1.403       .  A
C1814      C1815   1.397       .  A
C1814      H1827   1.083       .  S
C1815      C1816   1.403       .  A
C1815      H1828   1.083       .  S
C1816      C1817   1.406       .  A
C1816      C1819   1.480       .  S
C1817      C1818   1.397       .  A
C1817      H1829   1.082       .  S
C1818      H1830   1.083       .  S
C1819      C1820   1.351       .  D
C1819      H1831   1.083       .  S
C1820      C1821   1.489       .  S
C1820      H1832   1.087       .  S
C1821      C1822   1.409       .  A
C1821      C1826   1.406       .  A
C1822      C1823   1.404       .  A
C1822      H1833   1.083       .  S
C1823      C1824   1.401       .  A
C1823      H1834   1.083       .  S
C1824      C1825   1.404       .  A
C1825      C1826   1.393       .  A
C1825      H1835   1.084       .  S
C1826      H1836   1.080       .  S
C1837      C1838   1.402       .  A
C1837      C1842   1.400       .  A
C1838      C1839   1.387       .  A
C1838      H1851   1.083       .  S
C1839      C1840   1.404       .  A
C1839      H1852   1.082       .  S
C1840      C1841   1.405       .  A
C1840      C1843   1.474       .  S
C1841      C1842   1.398       .  A
C1841      H1853   1.083       .  S
C1842      H1854   1.083       .  S
C1843      C1844   1.347       .  D
C1843      H1855   1.085       .  S
C1844      C1845   1.476       .  S
C1844      H1856   1.086       .  S
C1845      C1846   1.406       .  A
C1845      C1850   1.404       .  A
C1846      C1847   1.399       .  A
C1846      H1857   1.082       .  S
C1847      C1848   1.400       .  A
C1847      H1858   1.083       .  S
C1848      C1849   1.400       .  A
C1849      C1850   1.386       .  A
C1849      H1859   1.084       .  S
C1850      H1860   1.081       .  S
C1861      C1862   1.403       .  A
C1861      C1866   1.407       .  A
C1862      C1863   1.396       .  A
C1862      H1875   1.082       .  S
C1863      C1864   1.404       .  A
C1863      H1876   1.083       .  S
C1864      C1865   1.408       .  A
C1864      C1867   1.488       .  S
C1865      C1866   1.403       .  A
C1865      H1877   1.082       .  S
C1866      H1878   1.083       .  S
C1867      C1868   1.351       .  D
C1867      H1879   1.085       .  S
C1868      C1869   1.493       .  S
C1868      H1880   1.086       .  S
C1869      C1870   1.408       .  A
C1869      C1874   1.406       .  A
C1870      C1871   1.406       .  A
C1870      H1881   1.083       .  S
C1871      C1872   1.404       .  A
C1871      H1882   1.083       .  S
C1872      C1873   1.406       .  A
C1873      C1874   1.395       .  A
C1873      H1883   1.083       .  S
C1874      H1884   1.081       .  S
C1885      C1886   1.403       .  A
C1885      C1890   1.408       .  A
C1886      C1887   1.390       .  A
C1886      H1899   1.080       .  S
C1887      C1888   1.403       .  A
C1887      H1900   1.083       .  S
C1888      C1889   1.404       .  A
C1888      C1891   1.480       .  S
C1889      C1890   1.405       .  A
C1889      H1901   1.083       .  S
C1890      H1902   1.083       .  S
C1891      C1892   1.345   1_455  D
C1891      H1903   1.087       .  S
C1892      C1893   1.478       .  S
C1892      H1904   1.087   1_655  S
C1893      C1894   1.403       .  A
C1893      C1898   1.404       .  A
C1894      C1895   1.404       .  A
C1894      H1905   1.083       .  S
C1895      C1896   1.408       .  A
C1895      H1906   1.083       .  S
C1896      C1897   1.402       .  A
C1897      C1898   1.391       .  A
C1897      H1907   1.082       .  S
C1898      H1908   1.083       .  S
C1909      C1910   1.403       .  A
C1909      C1914   1.401       .  A
C1910      C1911   1.396       .  A
C1910      H1923   1.083       .  S
C1911      C1912   1.403       .  A
C1911      H1924   1.083       .  S
C1912      C1913   1.405       .  A
C1912      C1915   1.475       .  S
C1913      C1914   1.393       .  A
C1913      H1925   1.082       .  S
C1914      H1926   1.083       .  S
C1915      C1916   1.347       .  D
C1915      H1927   1.085       .  S
C1916      C1917   1.479       .  S
C1916      H1928   1.086       .  S
C1917      C1918   1.405       .  A
C1917      C1922   1.405       .  A
C1918      C1919   1.399       .  A
C1918      H1929   1.083       .  S
C1919      C1920   1.400       .  A
C1919      H1930   1.083       .  S
C1920      C1921   1.401       .  A
C1921      C1922   1.391       .  A
C1921      H1931   1.084       .  S
C1922      H1932   1.081       .  S
C1933      C1934   1.401       .  A
C1933      C1938   1.404       .  A
C1934      C1935   1.400       .  A
C1934      H1947   1.083       .  S
C1935      C1936   1.405       .  A
C1935      H1948   1.081       .  S
C1936      C1937   1.406       .  A
C1936      C1939   1.483       .  S
C1937      C1938   1.393       .  A
C1937      H1949   1.082       .  S
C1938      H1950   1.084       .  S
C1939      C1940   1.345       .  D
C1939      H1951   1.087       .  S
C1940      C1941   1.478       .  S
C1940      H1952   1.086       .  S
C1941      C1942   1.401       .  A
C1941      C1946   1.407       .  A
C1942      C1943   1.395       .  A
C1942      H1953   1.083       .  S
C1943      C1944   1.402       .  A
C1943      H1954   1.083       .  S
C1944      C1945   1.401       .  A
C1945      C1946   1.399       .  A
C1945      H1955   1.083       .  S
C1946      H1956   1.083       .  S
C1957      C1958   1.406       .  A
C1957      C1962   1.403       .  A
C1958      C1959   1.391       .  A
C1958      H1971   1.083       .  S
C1959      C1960   1.401       .  A
C1959      H1972   1.083       .  S
C1960      C1961   1.404       .  A
C1960      C1963   1.477       .  S
C1961      C1962   1.402       .  A
C1961      H1973   1.082       .  S
C1962      H1974   1.083       .  S
C1963      C1964   1.346       .  D
C1963      H1975   1.087       .  S
C1964      C1965   1.475       .  S
C1964      H1976   1.086       .  S
C1965      C1966   1.404       .  A
C1965      C1970   1.401       .  A
C1966      C1967   1.403       .  A
C1966      H1977   1.083       .  S
C1967      C1968   1.403       .  A
C1967      H1978   1.083       .  S
C1968      C1969   1.402       .  A
C1969      C1970   1.389       .  A
C1969      H1979   1.083       .  S
C1970      H1980   1.083       .  S
C1981      C1982   1.401       .  A
C1981      C1986   1.402       .  A
C1982      C1983   1.396       .  A
C1982      H1995   1.083       .  S
C1983      C1984   1.402       .  A
C1983      H1996   1.083       .  S
C1984      C1985   1.405       .  A
C1984      C1987   1.474       .  S
C1985      C1986   1.392       .  A
C1985      H1997   1.082       .  S
C1986      H1998   1.082       .  S
C1987      C1988   1.346       .  D
C1987      H1999   1.085       .  S
C1988      C1989   1.480       .  S
C1988      H2000   1.087       .  S
C1989      C1990   1.406       .  A
C1989      C1994   1.405       .  A
C1990      C1991   1.400       .  A
C1990      H2001   1.083       .  S
C1991      C1992   1.400       .  A
C1991      H2002   1.083       .  S
C1992      C1993   1.401       .  A
C1993      C1994   1.389       .  A
C1993      H2003   1.084       .  S
C1994      H2004   1.081       .  S
C2005      C2006   1.404       .  A
C2005      C2010   1.399       .  A
C2006      C2007   1.407       .  A
C2006      H2019   1.083       .  S
C2007      C2008   1.411       .  A
C2007      H2020   1.082       .  S
C2008      C2009   1.401       .  A
C2008      C2011   1.481       .  S
C2009      C2010   1.386       .  A
C2009      H2021   1.084       .  S
C2010      H2022   1.084       .  S
C2011      C2012   1.346   1_565  D
C2011      H2023   1.088   1_565  S
C2012      C2013   1.485       .  S
C2012      H2024   1.085       .  S
C2013      C2014   1.405       .  A
C2013      C2018   1.406       .  A
C2014      C2015   1.387       .  A
C2014      H2025   1.083       .  S
C2015      C2016   1.401       .  A
C2015      H2026   1.082       .  S
C2016      C2017   1.405       .  A
C2017      C2018   1.406       .  A
C2017      H2027   1.083       .  S
C2018      H2028   1.083       .  S
C2029      C2030   1.402       .  A
C2029      C2034   1.405       .  A
C2030      C2031   1.390       .  A
C2030      H2043   1.082       .  S
C2031      C2032   1.403       .  A
C2031      H2044   1.083       .  S
C2032      C2033   1.405       .  A
C2032      C2035   1.477       .  S
C2033      C2034   1.404       .  A
C2033      H2045   1.083       .  S
C2034      H2046   1.083       .  S
C2035      C2036   1.344   1_655  D
C2035      H2047   1.087   1_655  S
C2036      C2037   1.478       .  S
C2036      H2048   1.087       .  S
C2037      C2038   1.404       .  A
C2037      C2042   1.403       .  A
C2038      C2039   1.403       .  A
C2038      H2049   1.083       .  S
C2039      C2040   1.407       .  A
C2039      H2050   1.083       .  S
C2040      C2041   1.403       .  A
C2041      C2042   1.390       .  A
C2041      H2051   1.080       .  S
C2042      H2052   1.084       .  S
