geometry optimzed in LAMMPS
_audit_creation_date              2020-12-01 
_audit_creation_method            'lammps2cif' 
_symmetry_space_group_name_H-M    'P1' 
_symmetry_Int_Tables_number       1 
_symmetry_cell_setting            triclinic 
loop_ 
_symmetry_equiv_pos_as_xyz 
  x,y,z 
_cell_length_a                    34.17478991 
_cell_length_b                    34.573871142169715 
_cell_length_c                    34.412683243555776 
_cell_angle_alpha                 89.73816255363647 
_cell_angle_beta                  90.53447052580975 
_cell_angle_gamma                 89.90760701419076 
loop_ 
_atom_site_label 
_atom_site_type_symbol 
_atom_site_fract_x 
_atom_site_fract_y 
_atom_site_fract_z 
_atom_site_charge 
C1          C  0.08746884  0.84476886  0.50849742     0.01500
C2          C  0.10952689  0.85445312  0.54208540     0.01500
C3          C  0.13756510  0.88527794  0.53934471     0.01500
C4          C  0.14344139  0.90420469  0.50299756     0.01500
C5          C  0.13523016  0.88138172  0.46969634     0.01500
C6          C  0.10599304  0.85157532  0.47223064     0.01500
C7          C  0.13585230  0.07765067  0.50030253     0.01500
C8          C  0.13115828  0.09597531  0.46306951     0.01500
C9          C  0.10245174  0.12605087  0.45926726     0.01500
C10         C  0.08062127  0.13716423  0.49197373     0.01500
C11         C  0.09940618  0.13278149  0.52898604     0.01500
C12         C  0.12714809  0.10098744  0.53364690     0.01500
C13         C  0.90732499  0.14667377  0.49092699     0.01500
C14         C  0.88755591  0.14206262  0.52709687     0.01500
C15         C  0.85645719  0.11382682  0.53032284     0.01500
C16         C  0.84958912  0.08926619  0.49728687     0.01500
C17         C  0.85894676  0.10530097  0.45970689     0.01500
C18         C  0.88657059  0.13641777  0.45701783     0.01500
C19         C  0.91496591  0.86002967  0.50583995     0.01500
C20         C  0.89511803  0.86740698  0.54129947     0.01500
C21         C  0.86330420  0.89576457  0.54145630     0.01500
C22         C  0.85749863  0.91746389  0.50631116     0.01500
C23         C  0.86587151  0.89804556  0.47079005     0.01500
C24         C  0.89500604  0.86820161  0.47078550     0.01500
C25         C  0.50388559  0.13946293  0.08297168     0.01500
C26         C  0.46908472  0.13291822  0.10520848     0.01500
C27         C  0.47008510  0.10479727  0.13749463     0.01500
C28         C  0.50469810  0.08113146  0.13966823     0.01500
C29         C  0.54029147  0.10034712  0.12979176     0.01500
C30         C  0.53989474  0.13105127  0.10166196     0.01500
C31         C  0.50320204  0.14144411  0.90982987     0.01500
C32         C  0.53675991  0.13316014  0.88760707     0.01500
C33         C  0.53401468  0.10745154  0.85501084     0.01500
C34         C  0.49749248  0.08889267  0.84776324     0.01500
C35         C  0.46321347  0.10942615  0.85943178     0.01500
C36         C  0.46626869  0.13661776  0.89099038     0.01500
C37         C  0.50950788  0.90781933  0.15565851     0.01500
C38         C  0.47471099  0.88551411  0.15158142     0.01500
C39         C  0.47352223  0.85548512  0.12242913     0.01500
C40         C  0.50809091  0.84824816  0.10080736     0.01500
C41         C  0.54376785  0.85663323  0.12036898     0.01500
C42         C  0.54488805  0.88777450  0.14777278     0.01500
C43         C  0.49978368  0.91865973  0.86698879     0.01500
C44         C  0.53681007  0.90177926  0.87602889     0.01500
C45         C  0.53888204  0.87267415  0.90634241     0.01500
C46         C  0.50435452  0.86499579  0.92798287     0.01500
C47         C  0.46794526  0.87038201  0.90812009     0.01500
C48         C  0.46598793  0.89693846  0.87599015     0.01500
C49         C  0.09185372  0.49990396  0.86123607     0.01500
C50         C  0.11349394  0.46563110  0.86686563     0.01500
C51         C  0.14243007  0.46471152  0.89715282     0.01500
C52         C  0.15065683  0.49904817  0.91852380     0.01500
C53         C  0.14268265  0.53444470  0.89898469     0.01500
C54         C  0.11127187  0.53501693  0.87052082     0.01500
C55         C  0.15388157  0.48972673  0.09231795     0.01500
C56         C  0.14441535  0.45468737  0.11204894     0.01500
C57         C  0.11381667  0.45545328  0.14087502     0.01500
C58         C  0.09506500  0.49118372  0.14909361     0.01500
C59         C  0.11815510  0.52477762  0.14245936     0.01500
C60         C  0.14922967  0.52396007  0.11462299     0.01500
C61         C  0.91895808  0.49738503  0.14733717     0.01500
C62         C  0.89623300  0.46348298  0.13983079     0.01500
C63         C  0.86804130  0.46356575  0.10825644     0.01500
C64         C  0.86262325  0.49839974  0.08672815     0.01500
C65         C  0.87118647  0.53377590  0.10699077     0.01500
C66         C  0.90006230  0.53340459  0.13856876     0.01500
C67         C  0.91864459  0.49087867  0.85282242     0.01500
C68         C  0.90115099  0.52704203  0.85928071     0.01500
C69         C  0.87607536  0.53123465  0.89204408     0.01500
C70         C  0.86483597  0.49780687  0.91287561     0.01500
C71         C  0.86509226  0.46216054  0.89143045     0.01500
C72         C  0.89566683  0.45780500  0.86228838     0.01500
O73         O  0.16703573  0.95098412  0.77006017    -0.80900
O74         O  0.22168896  0.03255762  0.82251983    -0.80900
O75         O  0.24905860  0.90670987  0.79843346    -0.80900
O76         O  0.21080500  0.07128011  0.74341711    -0.80900
O77         O  0.21690786  0.95348038  0.82795506    -0.81000
O78         O  0.16805054  0.03118807  0.76944921    -0.80900
O79         O  0.25276974  0.07228445  0.78322823    -0.80900
O80         O  0.20188850  0.90747161  0.73943855    -0.80900
C81         C  0.17369088  0.91623149  0.76155302     1.08800
C82         C  0.23575515  0.06542020  0.81545539     1.08700
C83         C  0.22660064  0.91837056  0.82563226     1.08800
C84         C  0.17771915  0.06508477  0.75935587     1.08700
O85         O  0.18928563  0.02916773  0.69039187    -0.80900
O86         O  0.29821065  0.95029761  0.81570408    -0.81000
O87         O  0.25507867  0.94207351  0.68665303    -0.80900
O88         O  0.31419799  0.04563205  0.74863984    -0.80900
O89         O  0.30350374  0.02569215  0.80861657    -0.81000
O90         O  0.19116342  0.95375647  0.69086031    -0.80900
O91         O  0.24949411  0.04947990  0.68155518    -0.80900
O92         O  0.31400652  0.94117021  0.75493256    -0.81000
Co93       Co  0.18325068  0.99041272  0.73349636     1.51500
Co94       Co  0.25726189  0.99016737  0.81417683     1.51700
Co95       Co  0.25593082  0.92881794  0.74419585     1.51600
Co96       Co  0.25727864  0.03653212  0.73824843     1.51500
O97         O  0.23969777  0.98499686  0.75644472    -1.42800
C98         C  0.21367859  0.04856267  0.67065877     1.08700
C99         C  0.32404982  0.94294348  0.79109213     1.08800
C100        C  0.22073501  0.94466661  0.67092658     1.08700
C101        C  0.32480733  0.04357267  0.78428731     1.08700
O102        O  0.04190272  0.19009691  0.74196773    -0.80900
O103        O  0.99262283  0.28247503  0.83335962    -0.80900
O104        O  0.09331895  0.26687661  0.77311075    -0.80900
O105        O  0.95712541  0.18639575  0.73636225    -0.80900
O106        O  0.04433622  0.23564258  0.79859823    -0.81000
O107        O  0.99312797  0.16285620  0.68911794    -0.80900
O108        O  0.96923111  0.23592792  0.79682753    -0.80900
O109        O  0.09124637  0.21969717  0.71522222    -0.80900
C110        C  0.07784602  0.19158763  0.73458685     1.08800
C111        C  0.96611006  0.25748046  0.82665436     1.08700
C112        C  0.08026875  0.24356434  0.79833178     1.08800
C113        C  0.96788771  0.15775852  0.71525944     1.08700
O114        O  0.97960848  0.23594927  0.65922114    -0.80900
O115        O  0.05005295  0.31684937  0.78978782    -0.81000
O116        O  0.06566784  0.27571016  0.66041949    -0.80900
O117        O  0.92785196  0.29792860  0.75387001    -0.80900
O118        O  0.98162537  0.32621654  0.76902951    -0.81000
O119        O  0.04781253  0.21388873  0.66204805    -0.80900
O120        O  0.92512198  0.24581480  0.68767878    -0.80900
O121        O  0.06612059  0.33246515  0.72975486    -0.81000
Co122      Co  0.00813191  0.21415578  0.70323088     1.51500
Co123      Co  0.00990056  0.27806035  0.78097230     1.51700
Co124      Co  0.07354040  0.27445767  0.71892635     1.51600
Co125      Co  0.95203302  0.24528859  0.74109634     1.51500
O126        O  0.01275168  0.26477965  0.72598474    -1.42800
C127        C  0.94330286  0.23536986  0.65759000     1.08700
C128        C  0.06278001  0.34155955  0.76597714     1.08800
C129        C  0.06287304  0.24228435  0.64419161     1.08700
C130        C  0.94531047  0.32716151  0.76747577     1.08700
O131        O  0.03479836  0.84786310  0.27662469    -0.80900
O132        O  0.99176619  0.74744297  0.18062472    -0.80900
O133        O  0.11353490  0.73635073  0.24324879    -0.80900
O134        O  0.93041624  0.78856025  0.24947013    -0.80900
O135        O  0.06623963  0.76008556  0.20543037    -0.81000
O136        O  0.98370269  0.81390686  0.22556337    -0.80900
O137        O  0.93699573  0.72646532  0.20732428    -0.80900
O138        O  0.07082092  0.79648520  0.26347144    -0.80900
C139        C  0.06759653  0.83316979  0.26710586     1.08800
C140        C  0.95633123  0.73857503  0.17846089     1.08700
C141        C  0.10244173  0.75042027  0.21046279     1.08800
C142        C  0.94731328  0.81558729  0.23102708     1.08700
O143        O  0.96719418  0.80954997  0.30706970    -0.80900
O144        O  0.05013857  0.69179480  0.18276398    -0.81000
O145        O  0.07451653  0.73433784  0.31810244    -0.80900
O146        O  0.94681511  0.67641851  0.27006025    -0.80900
O147        O  0.98734946  0.67618188  0.22128490    -0.81000
O148        O  0.03565119  0.78480973  0.32389400    -0.80900
O149        O  0.94250291  0.75167666  0.32139132    -0.80900
O150        O  0.06243604  0.67784634  0.24492312    -0.81000
Co151      Co  0.01165898  0.79720857  0.27312071     1.51500
Co152      Co  0.02407076  0.72086143  0.21871844     1.51700
Co153      Co  0.06103917  0.73727719  0.26058689     1.51600
Co154      Co  0.94312377  0.73521120  0.26374594     1.51500
O155        O  0.00219364  0.74406100  0.26497264    -1.42800
C156        C  0.94839718  0.78784354  0.33010776     1.08700
C157        C  0.06370305  0.66816704  0.20779951     1.08800
C158        C  0.06027738  0.76167698  0.33873599     1.08700
C159        C  0.96063186  0.65938146  0.23989668     1.08700
O160        O  0.30707914  0.79860484  0.05576207    -0.80900
O161        O  0.20971315  0.67823240  0.97820485    -0.80900
O162        O  0.26947740  0.67899040  0.09976531    -0.80900
O163        O  0.32390150  0.74935386  0.95987953    -0.80900
O164        O  0.24557507  0.67020484  0.04150569    -0.81000
O165        O  0.30827747  0.80881459  0.98065426    -0.80900
O166        O  0.26901259  0.67881908  0.95433664    -0.80900
O167        O  0.32644270  0.73783952  0.06229940    -0.80900
C168        C  0.33339132  0.77460611  0.06501360     1.08800
C169        C  0.23499020  0.66313705  0.95667179     1.08700
C170        C  0.25030123  0.65698430  0.07610785     1.08800
C171        C  0.33275261  0.78526853  0.96527048     1.08700
O172        O  0.22232920  0.81528406  0.97986645    -0.80900
O173        O  0.16635696  0.69262586  0.04134695    -0.81000
O174        O  0.25933643  0.76573676  0.10003901    -0.80900
O175        O  0.21022750  0.73459724  0.93640502    -0.80900
O176        O  0.17708299  0.75065582  0.98885189    -0.81000
O177        O  0.22430073  0.80056136  0.05938213    -0.80900
O178        O  0.25956729  0.79205052  0.93427092    -0.80900
O179        O  0.21000652  0.72300631  0.07842176    -0.81000
Co180      Co  0.26377897  0.80325490  0.01818648     1.51500
Co181      Co  0.21191557  0.71559093  0.01940637     1.51700
Co182      Co  0.26818078  0.72304786  0.06206087     1.51600
Co183      Co  0.26688529  0.73788426  0.95065262     1.51500
O184        O  0.25808070  0.74699234  0.00874311    -1.42800
C185        C  0.23132253  0.81306205  0.94454884     1.08700
C186        C  0.17544697  0.71008211  0.07239237     1.08800
C187        C  0.23954547  0.79635135  0.09279167     1.08700
C188        C  0.17808311  0.74429503  0.95240273     1.08700
O189        O  0.02476839  0.17901623  0.30048637    -0.80900
O190        O  0.96654669  0.30649295  0.20672053    -0.80900
O191        O  0.05128753  0.30243790  0.24695734    -0.80900
O192        O  0.94703811  0.24277056  0.30254409    -0.80900
O193        O  0.03769951  0.29486679  0.18429714    -0.81000
O194        O  0.94832133  0.18231426  0.28446377    -0.80900
O195        O  0.91228764  0.29571452  0.24091957    -0.80900
O196        O  0.04665688  0.23930823  0.31078875    -0.80900
C197        C  0.04032891  0.20434486  0.32274029     1.08800
C198        C  0.93227940  0.31772617  0.21819229     1.08700
C199        C  0.05041734  0.31588645  0.21186180     1.08800
C200        C  0.94203039  0.20673321  0.31075076     1.08700
O201        O  0.96299678  0.17259008  0.20416545    -0.80900
O202        O  0.03147113  0.21585405  0.16712316    -0.81000
O203        O  0.08189510  0.19017002  0.25840494    -0.80900
O204        O  0.93579117  0.24920395  0.18571053    -0.80900
O205        O  0.97504123  0.26397412  0.13733255    -0.81000
O206        O  0.03964977  0.16230222  0.21992851    -0.80900
O207        O  0.91638460  0.20956134  0.22779720    -0.80900
O208        O  0.08104324  0.24152390  0.20042496    -0.81000
Co209      Co  0.99475151  0.17662794  0.25088895     1.51500
Co210      Co  0.99626138  0.25528623  0.18861436     1.51700
Co211      Co  0.06115891  0.24446679  0.25439299     1.51600
Co212      Co  0.95121086  0.25464511  0.24421080     1.51500
O213        O  0.00427500  0.23195939  0.23994374    -1.42800
C214        C  0.92723740  0.18033825  0.20734154     1.08700
C215        C  0.06802777  0.22123533  0.17233532     1.08800
C216        C  0.07138156  0.16139408  0.23821819     1.08700
C217        C  0.94180764  0.25237483  0.14931048     1.08700
O218        O  0.19878500  0.93601964  0.30322600    -0.80900
O219        O  0.31641021  0.03551816  0.18620640    -0.80900
O220        O  0.33563067  0.93598519  0.28046476    -0.80900
O221        O  0.24917241  0.05778183  0.31110518    -0.80900
O222        O  0.33641657  0.97825900  0.23274808    -0.81000
O223        O  0.21031917  0.00805654  0.32039904    -0.80900
O224        O  0.31527119  0.05097503  0.24910606    -0.80900
O225        O  0.25820835  0.92170797  0.32453778    -0.80900
C226        C  0.22072688  0.92176632  0.32927558     1.08800
C227        C  0.33142265  0.05402638  0.21474561     1.08700
C228        C  0.35332993  0.95185178  0.25162098     1.08800
C229        C  0.22477252  0.03943525  0.33263637     1.08700
O230        O  0.15298204  0.99119165  0.26868530    -0.80900
O231        O  0.27238862  0.96295515  0.17996654    -0.81000
O232        O  0.22870444  0.90145484  0.24951718    -0.80900
O233        O  0.24721571  0.08671937  0.22915233    -0.80900
O234        O  0.23932819  0.03247729  0.19665491    -0.81000
O235        O  0.20165498  0.95174932  0.22131745    -0.80900
O236        O  0.19416937  0.03887955  0.25467699    -0.80900
O237        O  0.29720812  0.91620077  0.21544609    -0.81000
Co238      Co  0.20736559  0.98116493  0.26952649     1.51500
Co239      Co  0.28614510  0.00332644  0.21918564     1.51700
Co240      Co  0.27918272  0.92298674  0.26881612     1.51600
Co241      Co  0.25527500  0.03862790  0.25542072     1.51500
O242        O  0.26178784  0.98049550  0.26557090    -1.42800
C243        C  0.15915813  0.02572320  0.25827767     1.08700
C244        C  0.28166360  0.92776629  0.18438489     1.08800
C245        C  0.20206412  0.91589659  0.22772023     1.08700
C246        C  0.23933602  0.06967814  0.19691983     1.08700
O247        O  0.28491826  0.14763682  0.02756492    -0.80900
O248        O  0.18225517  0.22322506  0.95253648    -0.80900
O249        O  0.21892598  0.24223332  0.07920348    -0.80900
O250        O  0.26916835  0.20898192  0.92020893    -0.80900
O251        O  0.18751322  0.21447414  0.03075871    -0.81000
O252        O  0.23990731  0.17402434  0.96586033    -0.80900
O253        O  0.21455455  0.26051371  0.91239966    -0.80900
O254        O  0.26176193  0.19483061  0.06306294    -0.80900
C255        C  0.26866938  0.15900884  0.05876763     1.08800
C256        C  0.18821460  0.23544268  0.91865682     1.08700
C257        C  0.18998972  0.22233979  0.06633032     1.08800
C258        C  0.25143807  0.17871956  0.93110591     1.08700
O259        O  0.31889749  0.19602014  0.96836799    -0.80900
O260        O  0.19681845  0.29655552  0.03775004    -0.81000
O261        O  0.30741460  0.24912090  0.09060239    -0.80900
O262        O  0.25776876  0.31828003  0.95130808    -0.80900
O263        O  0.19466000  0.30490156  0.96216826    -0.81000
O264        O  0.32221380  0.22013767  0.03548794    -0.80900
O265        O  0.32462008  0.25849325  0.95330184    -0.80900
O266        O  0.25884975  0.30963844  0.05131652    -0.81000
Co267      Co  0.27437929  0.19806238  0.00426876     1.51500
Co268      Co  0.19302108  0.25820097  0.99559573     1.51700
Co269      Co  0.26836115  0.25236540  0.04838616     1.51600
Co270      Co  0.26705107  0.26239703  0.93850842     1.51500
O271        O  0.24983118  0.24820702  0.99307098    -1.42800
C272        C  0.33905722  0.22397411  0.95511709     1.08700
C273        C  0.22234612  0.31800315  0.05370017     1.08800
C274        C  0.33101481  0.22778915  0.07100292     1.08700
C275        C  0.22159053  0.32871192  0.95327714     1.08700
O276        O  0.81625567  0.04282187  0.29428261    -0.80900
O277        O  0.71557070  0.94134275  0.19283874    -0.80900
O278        O  0.68705931  0.03891763  0.24351830    -0.80900
O279        O  0.76823200  0.91544020  0.30313738    -0.80900
O280        O  0.69554421  0.01596264  0.18350917    -0.81000
O281        O  0.79960012  0.97175080  0.31025506    -0.80900
O282        O  0.70256919  0.94519870  0.25480508    -0.80900
O283        O  0.75258723  0.04842342  0.30396993    -0.80900
C284        C  0.78809805  0.05135215  0.31644359     1.08800
C285        C  0.69119371  0.93799090  0.21989036     1.08700
C286        C  0.67419297  0.03256303  0.20872810     1.08800
C287        C  0.78987526  0.93800443  0.32368952     1.08700
O288        O  0.86752684  0.98593376  0.26615446    -0.80900
O289        O  0.77224724  0.03387512  0.15884589    -0.81000
O290        O  0.79554943  0.08006598  0.23977364    -0.80900
O291        O  0.77511135  0.91387015  0.21753125    -0.80900
O292        O  0.79410868  0.95811505  0.17517650    -0.81000
O293        O  0.82979877  0.03290324  0.21323402    -0.80900
O294        O  0.82193437  0.94204870  0.25358498    -0.80900
O295        O  0.73621768  0.07454651  0.19185165    -0.81000
Co296      Co  0.81372074  0.99991959  0.25664940     1.51500
Co297      Co  0.74602663  0.98821270  0.18012334     1.51700
Co298      Co  0.74288696  0.05663956  0.24611984     1.51600
Co299      Co  0.76184137  0.95142993  0.26064349     1.51500
O300        O  0.76083917  0.00198255  0.23432069    -1.42800
C301        C  0.85807536  0.95171807  0.25640704     1.08700
C302        C  0.75471464  0.06590479  0.16148157     1.08800
C303        C  0.82128063  0.06857369  0.21588910     1.08700
C304        C  0.79357763  0.92325056  0.18651979     1.08700
O305        O  0.68653603  0.21834148  0.01310340    -0.80900
O306        O  0.78825325  0.33813346  0.93652061    -0.80900
O307        O  0.75331574  0.30753870  0.06060726    -0.80900
O308        O  0.68247692  0.25681544  0.92462354    -0.80900
O309        O  0.77128514  0.34006829  0.01041686    -0.81000
O310        O  0.70247983  0.19915038  0.94413391    -0.80900
O311        O  0.72676667  0.32916197  0.91897434    -0.80900
O312        O  0.69046833  0.25194169  0.06733363    -0.80900
C313        C  0.67350516  0.22543253  0.04766015     1.08800
C314        C  0.75684564  0.35066041  0.92169566     1.08700
C315        C  0.77113836  0.33685259  0.04647319     1.08800
C316        C  0.67593323  0.22066848  0.92951472     1.08700
O317        O  0.78648437  0.19881230  0.95110974    -0.80900
O318        O  0.82243030  0.27408261  0.02286626    -0.81000
O319        O  0.75184931  0.21233192  0.04684730    -0.80900
O320        O  0.79402219  0.28237882  0.89535423    -0.80900
O321        O  0.82743334  0.26679022  0.94794041    -0.81000
O322        O  0.74120631  0.16351918  0.00453585    -0.80900
O323        O  0.75229722  0.21874360  0.90047720    -0.80900
O324        O  0.77462551  0.24194910  0.05211480    -0.81000
Co325      Co  0.74159954  0.21371172  0.98439777     1.51500
Co326      Co  0.79946781  0.30223327  0.97948886     1.51700
Co327      Co  0.72628159  0.26572518  0.02583624     1.51600
Co328      Co  0.73818679  0.27249750  0.91416951     1.51500
O329        O  0.75155325  0.26908994  0.97286807    -1.42800
C330        C  0.77849498  0.19698486  0.91499267     1.08700
C331        C  0.81104115  0.25125005  0.04848430     1.08800
C332        C  0.75040868  0.17525086  0.03823257     1.08700
C333        C  0.82613318  0.27254292  0.91220773     1.08700
O334        O  0.05504703  0.79862435  0.71213880    -0.80900
O335        O  0.95585840  0.69232874  0.80429952    -0.80900
O336        O  0.08531887  0.68604463  0.75200701    -0.80900
O337        O  0.95844902  0.74199339  0.67843128    -0.80900
O338        O  0.02737532  0.67590920  0.77986331    -0.81000
O339        O  0.97948820  0.80299951  0.68916365    -0.80900
O340        O  0.94870917  0.67858630  0.74318975    -0.80900
O341        O  0.05320674  0.73954374  0.69140111    -0.80900
C342        C  0.06003413  0.77563488  0.68477347     1.08800
C343        C  0.94772667  0.66781320  0.77915783     1.08700
C344        C  0.06281481  0.66436387  0.77239898     1.08800
C345        C  0.96474699  0.77712771  0.66658693     1.08700
O346        O  0.95938526  0.82251934  0.76756075    -0.80900
O347        O  0.01416488  0.71215531  0.85305376    -0.81000
O348        O  0.08042676  0.76736644  0.76882068    -0.80900
O349        O  0.91582160  0.74402399  0.78602352    -0.80900
O350        O  0.96481604  0.76767455  0.82214138    -0.81000
O351        O  0.03674390  0.80964091  0.78973531    -0.80900
O352        O  0.92115650  0.79089687  0.72747188    -0.80900
O353        O  0.05919348  0.72849059  0.81036554    -0.81000
Co354      Co  0.00652143  0.80618519  0.74093146     1.51500
Co355      Co  0.99953434  0.72719833  0.80139851     1.51700
Co356      Co  0.04579581  0.72554172  0.74950188     1.51600
Co357      Co  0.93990752  0.73741568  0.73360421     1.51500
O358        O  0.99469018  0.75127359  0.75139852    -1.42800
C359        C  0.92716568  0.81893510  0.75001628     1.08700
C360        C  0.04893863  0.72179264  0.84571347     1.08800
C361        C  0.07194434  0.79796219  0.78770792     1.08700
C362        C  0.92815009  0.76364676  0.81514642     1.08700
O363        O  0.84416826  0.01877596  0.69969701    -0.80900
O364        O  0.77106536  0.96083819  0.81879872    -0.80900
O365        O  0.76407310  0.08690115  0.78221501    -0.80900
O366        O  0.78029900  0.92616342  0.73393443    -0.80900
O367        O  0.78827942  0.03893144  0.81694853    -0.81000
O368        O  0.81953377  0.97138051  0.75714558    -0.80900
O369        O  0.72870953  0.92399760  0.78881351    -0.80900
O370        O  0.81536704  0.06193005  0.73690180    -0.80900
C371        C  0.84673773  0.04823791  0.72067032     1.08800
C372        C  0.75390508  0.92885480  0.81530071     1.08700
C373        C  0.78465478  0.07491860  0.81082218     1.08800
C374        C  0.81196492  0.93617759  0.75063391     1.08700
O375        O  0.79169355  0.97102986  0.68048407    -0.80900
O376        O  0.70728726  0.05413657  0.80641325    -0.81000
O377        O  0.75737589  0.10228696  0.70147627    -0.80900
O378        O  0.67183978  0.96343487  0.74708946    -0.80900
O379        O  0.68869537  0.97908069  0.80822139    -0.81000
O380        O  0.77172942  0.04458416  0.67734393    -0.80900
O381        O  0.72913848  0.95732089  0.67751735    -0.80900
O382        O  0.69277394  0.06425239  0.74486764    -0.81000
Co383      Co  0.79486555  0.00868208  0.72146575     1.51500
Co384      Co  0.74019273  0.00755771  0.80946024     1.51700
Co385      Co  0.75197133  0.05748534  0.73464896     1.51600
Co386      Co  0.72746114  0.94801644  0.73637296     1.51500
O387        O  0.74722874  0.00257524  0.75209783    -1.42800
C388        C  0.76373737  0.95506003  0.66306101     1.08700
C389        C  0.68255227  0.06442996  0.78102435     1.08800
C390        C  0.77004522  0.08180214  0.67331427     1.08700
C391        C  0.66345186  0.96645998  0.78351268     1.08700
O392        O  0.79408932  0.81580689  0.04804635    -0.80900
O393        O  0.82116571  0.77448022  0.96593286    -0.80900
O394        O  0.81175159  0.71845462  0.08148899    -0.80900
O395        O  0.73981279  0.78598539  0.93071815    -0.80900
O396        O  0.84285299  0.74475824  0.03163934    -0.81000
O397        O  0.77007781  0.82542908  0.97103398    -0.80900
O398        O  0.78464764  0.74912701  0.92177712    -0.80900
O399        O  0.77246777  0.78091096  0.09771725    -0.80900
C400        C  0.79491748  0.80701984  0.08384144     1.08800
C401        C  0.81541079  0.76792810  0.93058130     1.08700
C402        C  0.84234434  0.73210962  0.06577946     1.08800
C403        C  0.75466728  0.81885492  0.93814974     1.08700
O404        O  0.69371904  0.80556547  0.99064004    -0.80900
O405        O  0.79674190  0.67951405  0.02179769    -0.81000
O406        O  0.69701217  0.74567583  0.07241158    -0.80900
O407        O  0.77349565  0.68493944  0.94692136    -0.80900
O408        O  0.83597269  0.69962762  0.96329341    -0.81000
O409        O  0.71505350  0.80578591  0.06776282    -0.80900
O410        O  0.68573137  0.75015970  0.95730395    -0.80900
O411        O  0.74500732  0.67605187  0.05771776    -0.81000
Co412      Co  0.74492798  0.80989751  0.01929363     1.51500
Co413      Co  0.80368983  0.72946054  0.99442157     1.51700
Co414      Co  0.75498633  0.73120745  0.07322323     1.51600
Co415      Co  0.74420125  0.73784856  0.96269021     1.51500
O416        O  0.75976018  0.75373474  0.01752055    -1.42800
C417        C  0.67366551  0.78447947  0.96745207     1.08700
C418        C  0.77543742  0.66001706  0.04397100     1.08800
C419        C  0.68839298  0.78163538  0.07375422     1.08700
C420        C  0.81174675  0.67717863  0.94622111     1.08700
C421        C  0.77172316  0.91049285  0.88178378    -0.27100
C422        C  0.75964696  0.89891043  0.84459551    -0.15200
C423        C  0.74923654  0.85996068  0.83777350     0.35500
C424        C  0.74860889  0.83439416  0.86873706    -0.26500
C425        C  0.75861764  0.84648780  0.90637088    -0.15800
C426        C  0.77098495  0.88469502  0.91283665     0.36500
N427        N  0.78100376  0.89801515  0.95100924    -0.90000
H428        H  0.77973598  0.94028223  0.88740612     0.17700
H429        H  0.73932862  0.80496028  0.86319285     0.17700
N430        N  0.73921067  0.84529027  0.80007423    -0.89100
H431        H  0.76227735  0.92087123  0.95791971     0.35000
H432        H  0.80961067  0.90864834  0.95039446     0.40100
H433        H  0.76137745  0.85258698  0.78069989     0.39700
H434        H  0.71268233  0.85727653  0.79072737     0.34600
C435        C  0.83113780  0.77694873  0.86222717    -0.27100
C436        C  0.84300668  0.78000684  0.90092883    -0.15200
C437        C  0.88256131  0.78735105  0.91012122     0.35500
C438        C  0.91028498  0.78654957  0.88055671    -0.26500
C439        C  0.89881625  0.77802530  0.84237411    -0.15800
C440        C  0.85851778  0.77620478  0.83281045     0.36500
N441        N  0.84505274  0.77111443  0.79366511    -0.90000
H442        H  0.80072566  0.77194294  0.85475454     0.17700
H443        H  0.94101019  0.78891131  0.88822254     0.17700
N444        N  0.89519702  0.79218805  0.94959761    -0.89100
H445        H  0.82472634  0.79304043  0.78776793     0.35000
H446        H  0.83015508  0.74476182  0.79208717     0.40100
H447        H  0.90961224  0.81874840  0.95170561     0.39700
H448        H  0.91531645  0.77028235  0.95631587     0.34600
C449        C  0.83231004  0.87043458  0.73907312    -0.27100
C450        C  0.84045259  0.90558495  0.75758415    -0.15200
C451        C  0.87606585  0.91035865  0.77804842     0.35500
C452        C  0.90347142  0.88053270  0.77724959    -0.26500
C453        C  0.89647603  0.84738102  0.75472048    -0.15800
C454        C  0.86040474  0.84254228  0.73534300     0.36500
N455        N  0.85232863  0.81030564  0.71029666    -0.90000
H456        H  0.80485607  0.86525487  0.72398610     0.17700
H457        H  0.93102470  0.88421578  0.79262418     0.17700
N458        N  0.88539592  0.94469888  0.79932526    -0.89100
H459        H  0.84700119  0.82091621  0.68223558     0.35000
H460        H  0.82683494  0.79656930  0.71957930     0.40100
H461        H  0.86305866  0.94991391  0.81919738     0.39700
H462        H  0.88722759  0.96796949  0.77995872     0.34600
C463        C  0.79923160  0.14214622  0.82364385    -0.27100
C464        C  0.79974536  0.10436416  0.83792466    -0.15200
C465        C  0.80453118  0.09809292  0.87822257     0.35500
C466        C  0.80364081  0.13004343  0.90361446    -0.26500
C467        C  0.79501685  0.16727557  0.88909036    -0.15800
C468        C  0.79322540  0.17302798  0.84826738     0.36500
N469        N  0.77863931  0.20824180  0.83127991    -0.90000
H470        H  0.79686173  0.14746297  0.79260975     0.17700
H471        H  0.80469040  0.12497533  0.93470978     0.17700
N472        N  0.80705341  0.05962713  0.89361197    -0.89100
H473        H  0.75033910  0.20276199  0.82087582     0.35000
H474        H  0.79528880  0.21470824  0.80675159     0.40100
H475        H  0.78370507  0.05553581  0.91261210     0.39700
H476        H  0.83304022  0.05742415  0.90974512     0.34600
C477        C  0.78000945  0.08870849  0.09793533    -0.27100
C478        C  0.75463083  0.09371498  0.12946847    -0.15200
C479        C  0.72909801  0.12590397  0.13026153     0.35500
C480        C  0.73166123  0.15369405  0.10156042    -0.26500
C481        C  0.75561152  0.14801579  0.06963028    -0.15800
C482        C  0.77987836  0.11544106  0.06728048     0.36500
N483        N  0.80455526  0.10991259  0.03436484    -0.90000
H484        H  0.79949615  0.06399182  0.09683833     0.17700
H485        H  0.71244987  0.17858536  0.10291844     0.17700
N486        N  0.69948200  0.13006850  0.15924880    -0.89100
H487        H  0.79737666  0.08335930  0.02177349     0.35000
H488        H  0.83351328  0.10829246  0.04432266     0.40100
H489        H  0.67218691  0.13111094  0.14524812     0.39700
H490        H  0.70383794  0.15637279  0.17350075     0.34600
C491        C  0.81374994  0.85534897  0.17658961    -0.27100
C492        C  0.81209960  0.89348193  0.16259657    -0.15200
C493        C  0.82136763  0.90103342  0.12333932     0.35500
C494        C  0.82384540  0.87020695  0.09762070    -0.26500
C495        C  0.81585040  0.83262445  0.11057041    -0.15800
C496        C  0.81629753  0.82461877  0.15062411     0.36500
N497        N  0.81579080  0.78554797  0.16464851    -0.90000
H498        H  0.80905962  0.84910519  0.20701562     0.17700
H499        H  0.82617232  0.87654717  0.06684824     0.17700
N500        N  0.82411403  0.93973695  0.10850596    -0.89100
H501        H  0.79064439  0.78174494  0.18130462     0.35000
H502        H  0.84014877  0.78165684  0.18287441     0.40100
H503        H  0.80256556  0.94348709  0.08702213     0.39700
H504        H  0.85143503  0.94288841  0.09545960     0.34600
C505        C  0.24911909  0.09543601  0.08966158    -0.27100
C506        C  0.25939562  0.13452038  0.09325774    -0.15200
C507        C  0.25784955  0.15150994  0.13106808     0.35500
C508        C  0.24362180  0.13090830  0.16230675    -0.26500
C509        C  0.23708653  0.09147665  0.15984619    -0.15800
C510        C  0.23896347  0.07346619  0.12285272     0.36500
N511        N  0.23168540  0.03289196  0.11891999    -0.90000
H512        H  0.24977908  0.08174306  0.06142136     0.17700
H513        H  0.24282405  0.14526694  0.19025063     0.17700
N514        N  0.27479461  0.18806572  0.14076870    -0.89100
H515        H  0.25669454  0.02002913  0.10734932     0.35000
H516        H  0.20870012  0.02929586  0.09901327     0.40100
H517        H  0.25925445  0.21090942  0.12873685     0.39700
H518        H  0.30409035  0.18811775  0.13251310     0.34600
C519        C  0.08811942  0.21155705  0.10480195    -0.27100
C520        C  0.09662585  0.20762287  0.14440345    -0.15200
C521        C  0.13539580  0.20044194  0.15688946     0.35500
C522        C  0.16560248  0.20284309  0.13034009    -0.26500
C523        C  0.15772116  0.21141085  0.09149411    -0.15800
C524        C  0.11855318  0.21384230  0.07807984     0.36500
N525        N  0.10967876  0.22227532  0.03813666    -0.90000
H526        H  0.05836726  0.21707186  0.09504035     0.17700
H527        H  0.19528600  0.20030066  0.14078646     0.17700
N528        N  0.14449765  0.19315242  0.19697598    -0.89100
H529        H  0.09408753  0.24830970  0.03686124     0.35000
H530        H  0.09151911  0.20036431  0.02749416     0.40100
H531        H  0.16371724  0.21462430  0.20665589     0.39700
H532        H  0.15907054  0.16658047  0.19890828     0.34600
C533        C  0.91066080  0.22895112  0.08746884    -0.27100
C534        C  0.90715502  0.24582268  0.12413126    -0.15200
C535        C  0.86930915  0.25601284  0.13777241     0.35500
C536        C  0.83657877  0.25111341  0.11400365    -0.26500
C537        C  0.84068966  0.23799287  0.07622095    -0.15800
C538        C  0.87748027  0.22490910  0.06338036     0.36500
N539        N  0.88114495  0.20825169  0.02558888    -0.90000
H540        H  0.93907033  0.21976680  0.07723654     0.17700
H541        H  0.80852351  0.26203399  0.12362984     0.17700
N542        N  0.86419352  0.27515131  0.17423898    -0.89100
H543        H  0.89123849  0.17988690  0.02918682     0.35000
H544        H  0.90266330  0.22353395  0.01065822     0.40100
H545        H  0.84404037  0.25957847  0.19067841     0.39700
H546        H  0.85198591  0.30242100  0.16877434     0.34600
C547        C  0.87962804  0.08833275  0.17949126    -0.27100
C548        C  0.84270572  0.09767559  0.19383223    -0.15200
C549        C  0.83081199  0.13670636  0.19492812     0.35500
C550        C  0.85906340  0.16528753  0.19248400    -0.26500
C551        C  0.89836990  0.15498975  0.18904186    -0.15800
C552        C  0.90803813  0.11693320  0.17699747     0.36500
N553        N  0.94669731  0.10549879  0.16595981    -0.90000
H554        H  0.88813962  0.05841112  0.17548613     0.17700
H555        H  0.85071334  0.19472438  0.19872110     0.17700
N556        N  0.79109771  0.14734123  0.20259503    -0.89100
H557        H  0.96529820  0.10587584  0.19019871     0.35000
H558        H  0.95679338  0.12468439  0.14473580     0.40100
H559        H  0.78168178  0.16584611  0.18028154     0.39700
H560        H  0.79057442  0.16295320  0.22853966     0.34600
C561        C  0.10060743  0.11194332  0.27977731    -0.27100
C562        C  0.09158256  0.12467803  0.24217432    -0.15200
C563        C  0.09845310  0.10068904  0.21007574     0.35500
C564        C  0.11742507  0.06526906  0.21597192    -0.26500
C565        C  0.12770907  0.05330706  0.25361663    -0.15800
C566        C  0.11791906  0.07594628  0.28585421     0.36500
N567        N  0.12785780  0.06319553  0.32443703    -0.90000
H568        H  0.09402651  0.13007209  0.30445386     0.17700
H569        H  0.12603063  0.04814432  0.19114743     0.17700
N570        N  0.08788457  0.11301488  0.17159075    -0.89100
H571        H  0.11136445  0.03843605  0.33025540     0.35000
H572        H  0.11982510  0.08394444  0.34489017     0.40100
H573        H  0.06892581  0.09239757  0.15975718     0.39700
H574        H  0.11322927  0.11350448  0.15480577     0.34600
C575        C  0.28232099  0.83064033  0.13830720    -0.27100
C576        C  0.24705116  0.83066870  0.11712451    -0.15200
C577        C  0.22470611  0.86525119  0.11497273     0.35500
C578        C  0.23789240  0.89835878  0.13456378    -0.26500
C579        C  0.27333024  0.89779711  0.15548051    -0.15800
C580        C  0.29606815  0.86374676  0.15634237     0.36500
N581        N  0.33320438  0.86247309  0.17615529    -0.90000
H582        H  0.30069323  0.80509743  0.13976934     0.17700
H583        H  0.21958093  0.92398069  0.13486749     0.17700
N584        N  0.18810478  0.86732431  0.09446605    -0.89100
H585        H  0.35464383  0.85450308  0.15630262     0.35000
H586        H  0.33201727  0.84103592  0.19764138     0.40100
H587        H  0.17014083  0.84503060  0.10446349     0.39700
H588        H  0.19304111  0.86356496  0.06482684     0.34600
C589        C  0.14849769  0.72486749  0.89054385    -0.27100
C590        C  0.14248700  0.74131794  0.92730063    -0.15200
C591        C  0.10352567  0.74947324  0.93861734     0.35500
C592        C  0.07233446  0.74182635  0.91249526    -0.26500
C593        C  0.07949956  0.72522263  0.87592386    -0.15800
C594        C  0.11796452  0.71565889  0.86588568     0.36500
N595        N  0.12645012  0.69543343  0.83071079    -0.90000
H596        H  0.17737759  0.71655920  0.88092086     0.17700
H597        H  0.04272478  0.74948469  0.92044148     0.17700
N598        N  0.09475309  0.76566148  0.97573899    -0.89100
H599        H  0.14053642  0.66952077  0.83812527     0.35000
H600        H  0.14590360  0.71207817  0.81446141     0.40100
H601        H  0.11032955  0.79149243  0.97875998     0.39700
H602        H  0.10401636  0.74628385  0.99734269     0.34600
C603        C  0.92034599  0.92260717  0.22943620    -0.27100
C604        C  0.88556861  0.91956093  0.25081905    -0.15200
C605        C  0.87163149  0.88263756  0.26093229     0.35500
C606        C  0.88818943  0.85038986  0.24515033    -0.26500
C607        C  0.92497772  0.85202997  0.22788296    -0.15800
C608        C  0.94127195  0.88868197  0.21936847     0.36500
N609        N  0.97839042  0.89156027  0.20071204    -0.90000
H610        H  0.93116089  0.95077384  0.22084253     0.17700
H611        H  0.87387989  0.82314430  0.25148999     0.17700
N612        N  0.84065497  0.87742299  0.28822760    -0.89100
H613        H  0.99693950  0.90768380  0.21868392     0.35000
H614        H  0.97439806  0.90698196  0.17477063     0.40100
H615        H  0.85145369  0.86109030  0.31165234     0.39700
H616        H  0.81820806  0.86164460  0.27492962     0.34600
C617        C  0.09675521  0.89127872  0.23554928    -0.27100
C618        C  0.10161352  0.85564284  0.25460050    -0.15200
C619        C  0.13871678  0.83738522  0.25460401     0.35500
C620        C  0.16943082  0.85436324  0.23475727    -0.26500
C621        C  0.16650471  0.89264251  0.22190415    -0.15800
C622        C  0.12917794  0.91033031  0.21936679     0.36500
N623        N  0.12465323  0.94790172  0.20187483    -0.90000
H624        H  0.06798404  0.90432557  0.23364915     0.17700
H625        H  0.19773006  0.84012436  0.23540043     0.17700
N626        N  0.14586149  0.80303056  0.27733719    -0.89100
H627        H  0.09545903  0.95691274  0.20289134     0.35000
H628        H  0.13180202  0.94537215  0.17252505     0.40100
H629        H  0.14230650  0.81047405  0.30650156     0.39700
H630        H  0.17472852  0.79345458  0.27448018     0.34600
C631        C  0.89847021  0.76729338  0.09215763    -0.27100
C632        C  0.87815709  0.73237107  0.08760135    -0.15200
C633        C  0.89006236  0.69888471  0.10725178     0.35500
C634        C  0.92077385  0.70092984  0.13313867    -0.26500
C635        C  0.93767915  0.73645871  0.14146153    -0.15800
C636        C  0.92810449  0.76975268  0.12013680     0.36500
N637        N  0.94587525  0.80615272  0.12912317    -0.90000
H638        H  0.88907567  0.79312375  0.07669393     0.17700
H639        H  0.92856994  0.67542479  0.14985842     0.17700
N640        N  0.87005856  0.66307637  0.10236467    -0.89100
H641        H  0.92377532  0.82538996  0.13719168     0.35000
H642        H  0.95871843  0.81683531  0.10380726     0.40100
H643        H  0.85837598  0.65505368  0.12919654     0.39700
H644        H  0.89136090  0.64263929  0.09545387     0.34600
C645        C  0.13221587  0.75390351  0.10663794    -0.27100
C646        C  0.14859630  0.71678775  0.10380426    -0.15200
C647        C  0.15376958  0.69429071  0.13738940     0.35500
C648        C  0.14352994  0.70887704  0.17321836    -0.26500
C649        C  0.12591575  0.74506246  0.17615775    -0.15800
C650        C  0.12027583  0.76818408  0.14277248     0.36500
N651        N  0.10258217  0.80576682  0.14591489    -0.90000
H652        H  0.13071299  0.77235912  0.08110692     0.17700
H653        H  0.14707688  0.69040595  0.19858199     0.17700
N654        N  0.17167278  0.65717079  0.13564480    -0.89100
H655        H  0.10056456  0.81904005  0.11861039     0.35000
H656        H  0.12122054  0.82286467  0.16288639     0.40100
H657        H  0.15222010  0.63688154  0.14693698     0.39700
H658        H  0.19610326  0.65786567  0.15413968     0.34600
C659        C  0.86107632  0.25534374  0.85328763    -0.27100
C660        C  0.86272868  0.26841417  0.89129516    -0.15200
C661        C  0.89960496  0.27537161  0.90932456     0.35500
C662        C  0.93356133  0.26830232  0.88873434    -0.26500
C663        C  0.93148240  0.25489137  0.85056222    -0.15800
C664        C  0.89492580  0.24662165  0.83325558     0.36500
N665        N  0.89179346  0.23089213  0.79487828    -0.90000
H666        H  0.83339418  0.25276120  0.83882825     0.17700
H667        H  0.96161263  0.27542254  0.90181707     0.17700
N668        N  0.90365846  0.29260884  0.94695816    -0.89100
H669        H  0.87708545  0.20445717  0.79679644     0.35000
H670        H  0.87454009  0.24954367  0.77791958     0.40100
H671        H  0.89348782  0.27355491  0.96808646     0.39700
H672        H  0.88716064  0.31808443  0.94752337     0.34600
C673        C  0.14753773  0.23045864  0.81901912    -0.27100
C674        C  0.10756076  0.22785702  0.82724269    -0.15200
C675        C  0.09551094  0.21663474  0.86458859     0.35500
C676        C  0.12347961  0.21439000  0.89445140    -0.26500
C677        C  0.16277037  0.22322159  0.88684109    -0.15800
C678        C  0.17534339  0.22740210  0.84840709     0.36500
N679        N  0.21606356  0.23111616  0.83949133    -0.90000
H680        H  0.15719551  0.23852346  0.79034928     0.17700
H681        H  0.11383096  0.20964661  0.92400060     0.17700
N682        N  0.05495980  0.21097838  0.87304616    -0.89100
H683        H  0.22026770  0.25773463  0.82560993     0.35000
H684        H  0.22335572  0.20922359  0.81996583     0.40100
H685        H  0.04694083  0.23068065  0.89452613     0.39700
H686        H  0.05168135  0.18306582  0.88435066     0.34600
C687        C  0.92542134  0.11645987  0.75569010    -0.27100
C688        C  0.94774772  0.12032127  0.72175059    -0.15200
C689        C  0.94361168  0.09230280  0.69236930     0.35500
C690        C  0.91208772  0.06614476  0.69417771    -0.26500
C691        C  0.88533112  0.06745843  0.72506220    -0.15800
C692        C  0.89451638  0.09001225  0.75774216     0.36500
N693        N  0.87195657  0.08665747  0.79248320    -0.90000
H694        H  0.93023045  0.13604964  0.77976151     0.17700
H695        H  0.90650417  0.04712969  0.66981580     0.17700
N696        N  0.96943557  0.09215855  0.65972695    -0.89100
H697        H  0.88264742  0.10531578  0.81391898     0.35000
H698        H  0.87578504  0.05855139  0.80322439     0.40100
H699        H  0.96201623  0.06980508  0.64068651     0.48100
H700        H  0.99753578  0.08583018  0.67024769     0.34600
C701        C  0.21702054  0.85153121  0.84676144    -0.27100
C702        C  0.21374221  0.89085408  0.85522946    -0.15200
C703        C  0.20359103  0.90255891  0.89314179     0.35500
C704        C  0.20287453  0.87491517  0.92294084    -0.26500
C705        C  0.21231191  0.83647740  0.91475440    -0.15800
C706        C  0.21514929  0.82416476  0.87605046     0.36500
N707        N  0.22056302  0.78414390  0.86693311    -0.90000
H708        H  0.22462332  0.84194486  0.81792645     0.17700
H709        H  0.19983876  0.88431620  0.95276830     0.17700
N710        N  0.19796788  0.94253917  0.90230993    -0.89100
H711        H  0.24700964  0.78105195  0.85220974     0.35000
H712        H  0.19790484  0.77595466  0.84824535     0.40100
H713        H  0.21877526  0.95034333  0.92331398     0.39700
H714        H  0.17022896  0.94557214  0.91449512     0.34600
C715        C  0.26740331  0.12011966  0.84284227    -0.27100
C716        C  0.23559377  0.09514034  0.84436223    -0.15200
C717        C  0.20861066  0.09703981  0.87512504     0.35500
C718        C  0.21414812  0.12480036  0.90367328    -0.26500
C719        C  0.24671586  0.14917625  0.90223861    -0.15800
C720        C  0.27397510  0.14625559  0.87161452     0.36500
N721        N  0.30990556  0.16753295  0.86965959    -0.90000
H722        H  0.28900109  0.11817861  0.82001620     0.17700
H723        H  0.19313496  0.12731291  0.92693602     0.17700
N724        N  0.17552071  0.07186760  0.87794250    -0.89100
H725        H  0.32541218  0.16368478  0.89566975     0.35000
H726        H  0.30434854  0.19674245  0.86404428     0.40100
H727        H  0.18534282  0.04348751  0.88192424     0.39700
H728        H  0.15948223  0.07374633  0.85202501     0.34600
C729        C  0.16860949  0.13425244  0.75433259    -0.27100
C730        C  0.15248425  0.09855371  0.76506388    -0.15200
C731        C  0.11205374  0.09583005  0.77267938     0.35500
C732        C  0.08847654  0.12797637  0.76558107    -0.26500
C733        C  0.10421670  0.16145509  0.74856375    -0.15800
C734        C  0.14489777  0.16468445  0.74336593     0.36500
N735        N  0.16229949  0.19719018  0.72405367    -0.90000
H736        H  0.19978266  0.13759012  0.74983262     0.17700
H737        H  0.05727457  0.12551644  0.77037627     0.17700
N738        N  0.09370478  0.06074263  0.78516575    -0.89100
H739        H  0.17445919  0.18732597  0.69813026     0.35000
H740        H  0.18537309  0.20748906  0.74122284     0.40100
H741        H  0.10732888  0.05120928  0.81077442     0.39700
H742        H  0.09692456  0.03981442  0.76362265     0.34600
C743        C  0.16314930  0.84736449  0.77138538    -0.27100
C744        C  0.15082462  0.88515995  0.77864547    -0.15200
C745        C  0.11771017  0.89176881  0.80185024     0.35500
C746        C  0.09453303  0.86034394  0.81246700    -0.26500
C747        C  0.10397672  0.82317645  0.79935690    -0.15800
C748        C  0.14100033  0.81622183  0.78299083     0.36500
N749        N  0.15397332  0.77803837  0.77312727    -0.90000
H750        H  0.18974381  0.84156058  0.75549592     0.17700
H751        H  0.06679089  0.86575003  0.82647957     0.17700
N752        N  0.10609336  0.93009379  0.81247200    -0.89100
H753        H  0.18194221  0.77380099  0.78483844     0.35000
H754        H  0.15642506  0.77656270  0.74288980     0.40100
H755        H  0.10480616  0.93130553  0.84278642     0.39700
H756        H  0.07794972  0.93512525  0.80135750     0.34600
C757        C  0.93748123  0.58740128  0.85450409    -0.27100
C758        C  0.91450881  0.56056249  0.83588412    -0.15200
C759        C  0.90504973  0.56605994  0.79609012     0.35500
C760        C  0.91806471  0.59972894  0.77617377    -0.26500
C761        C  0.93857130  0.62875243  0.79634243    -0.15800
C762        C  0.94696127  0.62208212  0.83691304     0.36500
N763        N  0.96156263  0.65170393  0.86223377    -0.90000
H764        H  0.94668394  0.58230239  0.88419525     0.17700
H765        H  0.91024600  0.60404927  0.74589564     0.17700
N766        N  0.88145236  0.53811726  0.77627541    -0.89100
H767        H  0.98390032  0.64063226  0.87994497     0.35000
H768        H  0.93876023  0.65992752  0.88039264     0.40100
H769        H  0.85627281  0.55211346  0.76592812     0.39700
H770        H  0.89706351  0.52822357  0.75230278     0.34600
C771        C  0.88256938  0.59376752  0.92742432    -0.27100
C772        C  0.86015059  0.56945452  0.90393547    -0.15200
C773        C  0.82177596  0.58070362  0.89358240     0.35500
C774        C  0.80626210  0.61596130  0.90702159    -0.26500
C775        C  0.82898127  0.64097383  0.92982602    -0.15800
C776        C  0.86845772  0.62999059  0.93871096     0.36500
N777        N  0.89441630  0.65499657  0.95989611    -0.90000
H778        H  0.91128514  0.58458876  0.93735680     0.17700
H779        H  0.77637131  0.62366206  0.89963255     0.17700
N780        N  0.79813371  0.55579726  0.87006497    -0.89100
H781        H  0.91901627  0.66041885  0.94298006     0.35000
H782        H  0.90393437  0.64067590  0.98497474     0.40100
H783        H  0.78958793  0.57121834  0.84519378     0.39700
H784        H  0.77297237  0.54891494  0.88568371     0.34600
C785        C  0.92451005  0.35560042  0.83030851    -0.27100
C786        C  0.92507745  0.35873504  0.78945811    -0.15200
C787        C  0.91426506  0.39454155  0.77284311     0.35500
C788        C  0.90319465  0.42554999  0.79702654    -0.26500
C789        C  0.90291892  0.42220146  0.83813136    -0.15800
C790        C  0.91376280  0.38634607  0.85456695     0.36500
N791        N  0.91727924  0.38108098  0.89573129    -0.90000
H792        H  0.93514671  0.32975263  0.84394657     0.17700
H793        H  0.89529654  0.45289094  0.78359082     0.17700
N794        N  0.91558620  0.40061265  0.73172672    -0.89100
H795        H  0.89001770  0.38583377  0.90828996     0.35000
H796        H  0.93708113  0.40152626  0.90641045     0.40100
H797        H  0.89736308  0.38018772  0.71849153     0.39700
H798        H  0.94422291  0.39562311  0.72254542     0.34600
C799        C  0.77629003  0.39477210  0.86976857    -0.27100
C800        C  0.76022061  0.39043211  0.90701214    -0.15200
C801        C  0.77340300  0.41584712  0.93570478     0.35500
C802        C  0.80988213  0.43348955  0.93150882    -0.26500
C803        C  0.82902699  0.43625933  0.89534634    -0.15800
C804        C  0.80885323  0.41931583  0.86328049     0.36500
N805        N  0.82032462  0.42706884  0.82421948    -0.90000
H806        H  0.76549218  0.37688429  0.84623771     0.17700
H807        H  0.82310286  0.44295598  0.95796602     0.17700
N808        N  0.75348345  0.41789880  0.97210841    -0.89100
H809        H  0.79668522  0.44009639  0.80975203     0.35000
H810        H  0.82572681  0.40057379  0.81071682     0.40100
H811        H  0.74532992  0.44672802  0.97628176     0.39700
H812        H  0.77327999  0.41080909  0.99434204     0.34600
C813        C  0.89282086  0.57744402  0.19792062    -0.27100
C814        C  0.91222850  0.56838615  0.16271968    -0.15200
C815        C  0.94793218  0.58758500  0.15581836     0.35500
C816        C  0.96374341  0.61282876  0.18382867    -0.26500
C817        C  0.94403365  0.62392162  0.21830727    -0.15800
C818        C  0.90755527  0.60549489  0.22484765     0.36500
N819        N  0.88484008  0.61447207  0.25832014    -0.90000
H820        H  0.86590178  0.56245271  0.20466065     0.17700
H821        H  0.99149449  0.62580695  0.17671876     0.17700
N822        N  0.96889390  0.58308653  0.12010865    -0.89100
H823        H  0.87795830  0.64392989  0.25742443     0.35000
H824        H  0.90205763  0.60912757  0.28304455     0.40100
H825        H  0.95362878  0.56604619  0.10021208     0.39700
H826        H  0.99546434  0.56935843  0.12648502     0.34600
C827        C  0.81236483  0.57793580  0.11167981    -0.27100
C828        C  0.84846939  0.56876756  0.09417332    -0.15200
C829        C  0.85743660  0.58668524  0.05876710     0.35500
C830        C  0.83058008  0.61234953  0.04118762    -0.26500
C831        C  0.79497881  0.62340487  0.05909472    -0.15800
C832        C  0.78604053  0.60542073  0.09485768     0.36500
N833        N  0.75058342  0.61499272  0.11436000    -0.90000
H834        H  0.80424072  0.56316595  0.13822810     0.17700
H835        H  0.83900616  0.62535462  0.01397062     0.17700
N836        N  0.89426356  0.57895208  0.04072323    -0.89100
H837        H  0.75795968  0.62539423  0.14194105     0.35000
H838        H  0.73451895  0.58953525  0.11794959     0.40100
H839        H  0.91020316  0.60465842  0.03985811     0.39700
H840        H  0.88906419  0.57007042  0.01216247     0.34600
C841        C  0.90613841  0.38722743  0.22164042    -0.27100
C842        C  0.91712201  0.35459218  0.19987293    -0.15200
C843        C  0.91943691  0.35935534  0.15889662     0.35500
C844        C  0.91565914  0.39539796  0.14154807    -0.26500
C845        C  0.90433620  0.42738385  0.16230649    -0.15800
C846        C  0.89886970  0.42343780  0.20290600     0.36500
N847        N  0.88589963  0.45589821  0.22499408    -0.90000
H848        H  0.90387568  0.38491179  0.25292957     0.17700
H849        H  0.92148302  0.39803774  0.11087756     0.17700
N850        N  0.92498580  0.32764758  0.13348212    -0.89100
H851        H  0.90680255  0.46130440  0.24665211     0.35000
H852        H  0.85975699  0.44823186  0.23853786     0.40100
H853        H  0.94936181  0.33290815  0.11620287     0.39700
H854        H  0.90084980  0.32670237  0.11457422     0.34600
C855        C  0.78363211  0.38875709  0.09862145    -0.27100
C856        C  0.79714147  0.36481099  0.06849583    -0.15200
C857        C  0.83499336  0.37258147  0.05367189     0.35500
C858        C  0.85761073  0.40341728  0.06787743    -0.26500
C859        C  0.84408672  0.42815924  0.09692753    -0.15800
C860        C  0.80654109  0.42025447  0.11264786     0.36500
N861        N  0.79055008  0.44451981  0.14213111    -0.90000
H862        H  0.75450284  0.38432648  0.10991717     0.17700
H863        H  0.88605621  0.40806306  0.05534937     0.17700
N864        N  0.85059782  0.34960958  0.02293286    -0.89100
H865        H  0.78907432  0.47279111  0.13128036     0.35000
H866        H  0.80979916  0.44426370  0.16592538     0.40100
H867        H  0.87706732  0.33756018  0.03257429     0.39700
H868        H  0.85646636  0.36784789  0.99936877     0.34600
C869        C  0.88886910  0.47932170  0.02100986    -0.27100
C870        C  0.85855081  0.49684864  0.04193550    -0.15200
C871        C  0.82756101  0.51319057  0.01927321     0.35500
C872        C  0.83065429  0.51581783  0.97769169    -0.26500
C873        C  0.86246908  0.49912519  0.95741512    -0.15800
C874        C  0.89073659  0.47943322  0.98016199     0.36500
N875        N  0.92152978  0.45839422  0.96194378    -0.90000
H876        H  0.91168112  0.46438042  0.03632593     0.17700
H877        H  0.80718836  0.52907162  0.96099040     0.17700
N878        N  0.79280770  0.52630474  0.03824349    -0.89100
H879        H  0.91891009  0.42937939  0.97020447     0.35000
H880        H  0.94812352  0.46849067  0.97319157     0.40100
H881        H  0.77981178  0.50225314  0.05132988     0.39700
H882        H  0.77268640  0.53712356  0.01785735     0.34600
C883        C  0.08559569  0.58725976  0.13693625    -0.27100
C884        C  0.10605078  0.56130602  0.16020078    -0.15200
C885        C  0.11278088  0.56954257  0.19979661     0.35500
C886        C  0.09824644  0.60412951  0.21570748    -0.26500
C887        C  0.07758590  0.63058624  0.19223976    -0.15800
C888        C  0.07165598  0.62172937  0.15203683     0.36500
N889        N  0.05209515  0.64780210  0.12570492    -0.90000
H890        H  0.08037513  0.58071946  0.10654399     0.17700
H891        H  0.10364729  0.61049622  0.24607509     0.17700
N892        N  0.13461906  0.54304387  0.22367096    -0.89100
H893        H  0.02833105  0.63353023  0.11300428     0.35000
H894        H  0.07156805  0.65519537  0.10362517     0.40100
H895        H  0.15870595  0.55781989  0.23516142     0.39700
H896        H  0.11708028  0.53480924  0.24698561     0.34600
C897        C  0.23323936  0.59964502  0.12213098    -0.27100
C898        C  0.22947434  0.61907351  0.08603923    -0.15200
C899        C  0.20063267  0.60412559  0.05990731     0.35500
C900        C  0.17318848  0.57683264  0.07180821    -0.26500
C901        C  0.17602724  0.55798081  0.10729324    -0.15800
C902        C  0.20734380  0.56878109  0.13244843     0.36500
N903        N  0.21293946  0.54867764  0.16846573    -0.90000
H904        H  0.25535649  0.60900775  0.14275016     0.17700
H905        H  0.14992840  0.56966915  0.05185447     0.17700
N906        N  0.19922129  0.61509844  0.02002176    -0.89100
H907        H  0.21223133  0.56909261  0.19075167     0.35000
H908        H  0.24090951  0.53639654  0.16835603     0.40100
H909        H  0.17086692  0.62468359  0.01344180     0.39700
H910        H  0.20413283  0.59024003  0.00354989     0.34600
C911        C  0.06451708  0.40379076  0.14762677    -0.27100
C912        C  0.09905871  0.42008267  0.16128931    -0.15200
C913        C  0.11645235  0.40436358  0.19553785     0.35500
C914        C  0.09938602  0.37183688  0.21419503    -0.26500
C915        C  0.06462368  0.35519687  0.19961014    -0.15800
C916        C  0.04705517  0.37267124  0.16647503     0.36500
N917        N  0.01097304  0.35869206  0.15107843    -0.90000
H918        H  0.05096386  0.41485624  0.12131507     0.17700
H919        H  0.11407128  0.35879197  0.23902032     0.17700
N920        N  0.15155925  0.42054420  0.21151709    -0.89100
H921        H  0.01593467  0.34979822  0.12253545     0.35000
H922        H  0.99203108  0.38236187  0.14994553     0.40100
H923        H  0.14628939  0.44967275  0.21765675     0.39700
H924        H  0.17326448  0.41916962  0.19037727     0.34600
C925        C  0.14577658  0.38503018  0.09431420    -0.27100
C926        C  0.16659058  0.41866220  0.10235247    -0.15200
C927        C  0.20831699  0.41692184  0.10149439     0.35500
C928        C  0.22722105  0.38392167  0.08637725    -0.26500
C929        C  0.20556472  0.35097195  0.07625853    -0.15800
C930        C  0.16480404  0.35078845  0.08475808     0.36500
N931        N  0.14193669  0.31605950  0.08252936    -0.90000
H932        H  0.11423623  0.38505008  0.09457474     0.17700
H933        H  0.25866043  0.38406899  0.08270239     0.17700
N934        N  0.23218138  0.44701530  0.11769982    -0.89100
H935        H  0.11937751  0.32033884  0.06221415     0.35000
H936        H  0.12927624  0.31117553  0.10966347     0.40100
H937        H  0.22422835  0.45075091  0.14669624     0.39700
H938        H  0.22724094  0.47303680  0.10309979     0.34600
C939        C  0.02809439  0.48724116  0.11816668    -0.27100
C940        C  0.04996041  0.49341935  0.15220033    -0.15200
C941        C  0.02804161  0.49972464  0.18655904     0.35500
C942        C  0.98584229  0.50083574  0.18547379    -0.26500
C943        C  0.96421418  0.49471337  0.15062404    -0.15800
C944        C  0.98690343  0.48739309  0.11701342     0.36500
N945        N  0.96886864  0.47965224  0.08046911    -0.90000
H946        H  0.04340068  0.48033716  0.09186720     0.17700
H947        H  0.97005129  0.50632534  0.21202110     0.17700
N948        N  0.04821158  0.50413145  0.22279080    -0.89100
H949        H  0.95051691  0.50286578  0.07341210     0.35000
H950        H  0.95259919  0.45437946  0.08375425     0.40100
H951        H  0.03995619  0.53069991  0.23458710     0.39700
H952        H  0.03870666  0.48227043  0.24152972     0.34600
C953        C  0.12319428  0.57847712  0.81291222    -0.27100
C954        C  0.10101785  0.56931127  0.84609897    -0.15200
C955        C  0.06597223  0.58930658  0.85225062     0.35500
C956        C  0.05451264  0.61858998  0.82670876    -0.26500
C957        C  0.07651849  0.62902511  0.79397598    -0.15800
C958        C  0.11134178  0.60810955  0.78683818     0.36500
N959        N  0.13462570  0.61557287  0.75330538    -0.90000
H960        H  0.14947620  0.56207328  0.80692154     0.17700
H961        H  0.02829051  0.63412599  0.83348646     0.17700
N962        N  0.04199163  0.58043232  0.88498326    -0.89100
H963        H  0.14508683  0.64389765  0.75479522     0.35000
H964        H  0.11674253  0.61297284  0.72863206     0.40100
H965        H  0.03838838  0.60543567  0.90149401     0.39700
H966        H  0.01445767  0.57265705  0.87435762     0.34600
C967        C  0.20985537  0.56434809  0.91145299    -0.27100
C968        C  0.16848787  0.56859004  0.90821251    -0.15200
C969        C  0.15251609  0.60462649  0.91717243     0.35500
C970        C  0.17693385  0.63569900  0.92518108    -0.26500
C971        C  0.21760747  0.63159419  0.93193957    -0.15800
C972        C  0.23424525  0.59500736  0.92464147     0.36500
N973        N  0.27472749  0.58756053  0.93249830    -0.90000
H974        H  0.22301847  0.53646528  0.90570676     0.17700
H975        H  0.16238147  0.66251688  0.93186083     0.17700
N976        N  0.11150412  0.60921029  0.92314952    -0.89100
H977        H  0.28016601  0.59318486  0.96188501     0.35000
H978        H  0.29122006  0.60695263  0.91601671     0.40100
H979        H  0.10722830  0.61571864  0.95245867     0.39700
H980        H  0.10226766  0.63329742  0.90697912     0.34600
C981        C  0.12053552  0.42853374  0.80454258    -0.27100
C982        C  0.10327529  0.43200813  0.84164928    -0.15200
C983        C  0.07067507  0.40880640  0.85020145     0.35500
C984        C  0.05478830  0.38528537  0.82139298    -0.26500
C985        C  0.07362925  0.37872037  0.78553225    -0.15800
C986        C  0.10696072  0.40093285  0.77709579     0.36500
N987        N  0.12752173  0.39504012  0.74158889    -0.90000
H988        H  0.14492634  0.44701869  0.79706798     0.17700
H989        H  0.02885501  0.36894275  0.82895464     0.17700
N990        N  0.05360965  0.40708978  0.88818607    -0.89100
H991        H  0.15634207  0.38735234  0.74860771     0.35000
H992        H  0.12821178  0.42139361  0.72659602     0.40100
H993        H  0.06861572  0.42438732  0.90805296     0.39700
H994        H  0.02477766  0.41701842  0.88606701     0.34600
C995        C  0.15062041  0.41104818  0.94317158    -0.27100
C996        C  0.16229269  0.42857227  0.90881988    -0.15200
C997        C  0.19613876  0.41517998  0.88989900     0.35500
C998        C  0.21794384  0.38421495  0.90607754    -0.26500
C999        C  0.20663231  0.36723485  0.94137612    -0.15800
C1000       C  0.17285382  0.38162240  0.96004457     0.36500
N1001       N  0.16084399  0.36644378  0.99667147    -0.90000
H1002       H  0.12500349  0.42164232  0.95818022     0.17700
H1003       H  0.24265623  0.37263099  0.89041360     0.17700
N1004       N  0.20826669  0.43291065  0.85434836    -0.89100
H1005       H  0.13253107  0.35541376  0.99345419     0.35000
H1006       H  0.15952401  0.38975836  0.01582039     0.40100
H1007       H  0.20897813  0.41154560  0.83295617     0.39700
H1008       H  0.23673784  0.44324640  0.85836098     0.34600
C1009       C  0.12333210  0.51011493  0.98529676    -0.27100
C1010       C  0.15539566  0.49846679  0.96297648    -0.15200
C1011       C  0.18869309  0.48464749  0.98369615     0.35500
C1012       C  0.18837333  0.48132937  0.02521934    -0.26500
C1013       C  0.15523925  0.49170980  0.04746717    -0.15800
C1014       C  0.12250339  0.50614331  0.02621145     0.36500
N1015       N  0.08800205  0.51790662  0.04617026    -0.90000
H1016       H  0.09797386  0.52214234  0.97070879     0.17700
H1017       H  0.21445346  0.47080626  0.03963106     0.17700
N1018       N  0.22324680  0.47458473  0.96287964    -0.89100
H1019       H  0.08325365  0.54724649  0.04032773     0.35000
H1020       H  0.06447032  0.50275799  0.03401531     0.40100
H1021       H  0.23051275  0.44601256  0.96990713     0.39700
H1022       H  0.24598345  0.49224355  0.97285069     0.34600
C1023       C  0.02790164  0.49487944  0.82059992    -0.27100
C1024       C  0.04740489  0.49756117  0.85688186    -0.15200
C1025       C  0.02410104  0.49581624  0.89057682     0.35500
C1026       C  0.98308531  0.49231360  0.88779130    -0.26500
C1027       C  0.96326388  0.48944298  0.85204254    -0.15800
C1028       C  0.98626256  0.49123774  0.81798149     0.36500
N1029       N  0.96759031  0.49005094  0.78068318    -0.90000
H1030       H  0.04493880  0.49582668  0.79423941     0.17700
H1031       H  0.96631006  0.49333290  0.91410355     0.17700
N1032       N  0.04203618  0.49837265  0.92819563    -0.89100
H1033       H  0.97904191  0.46654052  0.76551505     0.35000
H1034       H  0.97498457  0.51530120  0.76564406     0.40100
H1035       H  0.03447488  0.47371836  0.94411737     0.39700
H1036       H  0.03017383  0.52230670  0.94236480     0.34600
C1037       C  0.58114291  0.89830488  0.81753337    -0.27100
C1038       C  0.57114724  0.91587937  0.85310029    -0.15200
C1039       C  0.58869152  0.95134132  0.86237886     0.35500
C1040       C  0.61504001  0.96852942  0.83660247    -0.26500
C1041       C  0.62662463  0.95100845  0.80172252    -0.15800
C1042       C  0.60924421  0.91493793  0.79234413     0.36500
N1043       N  0.62040879  0.89396291  0.75844074    -0.90000
H1044       H  0.56708480  0.87144564  0.80934727     0.17700
H1045       H  0.62806155  0.99537403  0.84495731     0.17700
N1046       N  0.57977038  0.97025247  0.89817944    -0.89100
H1047       H  0.65045409  0.88842024  0.76014378     0.35000
H1048       H  0.61492928  0.91141962  0.73411298     0.40100
H1049       H  0.56939785  0.99799684  0.89162153     0.39700
H1050       H  0.60583779  0.97337081  0.91397987     0.34600
C1051       C  0.60893836  0.86811172  0.92890873    -0.27100
C1052       C  0.57497047  0.84942692  0.91663845    -0.15200
C1053       C  0.57480203  0.80811674  0.91727963     0.35500
C1054       C  0.60661360  0.78704647  0.93348543    -0.26500
C1055       C  0.63980739  0.80594629  0.94816689    -0.15800
C1056       C  0.64141516  0.84719283  0.94324468     0.36500
N1057       N  0.67678788  0.86827488  0.95070193    -0.90000
H1058       H  0.61037836  0.89936469  0.92773134     0.17700
H1059       H  0.60520667  0.75577700  0.93468474     0.17700
N1060       N  0.54334522  0.78660190  0.90015382    -0.89100
H1061       H  0.67062992  0.89117228  0.96937906     0.35000
H1062       H  0.68547641  0.88077714  0.92445729     0.40100
H1063       H  0.53962537  0.79594780  0.87141670     0.39700
H1064       H  0.51760688  0.79200577  0.91517118     0.34600
C1065       C  0.38995467  0.90716759  0.79305160    -0.27100
C1066       C  0.36357837  0.93386241  0.80907404    -0.15200
C1067       C  0.37175673  0.94725744  0.84758692     0.35500
C1068       C  0.40324056  0.93250449  0.86932580    -0.26500
C1069       C  0.42912820  0.90595703  0.85372789    -0.15800
C1070       C  0.42297304  0.89380406  0.81484342     0.36500
N1071       N  0.45011113  0.86761623  0.79754257    -0.90000
H1072       H  0.38455990  0.89596203  0.76416162     0.17700
H1073       H  0.40827841  0.94322959  0.89840500     0.17700
N1074       N  0.34802311  0.97625614  0.86539730    -0.89100
H1075       H  0.46135381  0.88089621  0.77268993     0.35000
H1076       H  0.43470167  0.84298781  0.78883877     0.40100
H1077       H  0.36653486  0.99855145  0.87433736     0.39700
H1078       H  0.33563620  0.96427154  0.89036868     0.34600
C1079       C  0.42515872  0.81122026  0.90690929    -0.27100
C1080       C  0.43306113  0.84849108  0.92147517    -0.15200
C1081       C  0.40995111  0.86291967  0.95139804     0.35500
C1082       C  0.37877286  0.84089007  0.96533382    -0.26500
C1083       C  0.36994351  0.80362905  0.95113934    -0.15800
C1084       C  0.39400076  0.78866609  0.92140789     0.36500
N1085       N  0.38709385  0.75144356  0.90470747    -0.90000
H1086       H  0.44348467  0.79951987  0.88426938     0.17700
H1087       H  0.36052618  0.85383812  0.98689697     0.17700
N1088       N  0.41833337  0.89991132  0.96809177    -0.89100
H1089       H  0.35880529  0.75109878  0.89289445     0.35000
H1090       H  0.38903699  0.73065180  0.92678959     0.40100
H1091       H  0.42397073  0.89584333  0.99775551     0.39700
H1092       H  0.39332368  0.91718393  0.96526770     0.34600
C1093       C  0.59283088  0.88534136  0.20447761    -0.27100
C1094       C  0.58212367  0.89983011  0.16731880    -0.15200
C1095       C  0.60560706  0.92807957  0.15026007     0.35500
C1096       C  0.63969644  0.94029176  0.16919310    -0.26500
C1097       C  0.65095225  0.92663384  0.20638565    -0.15800
C1098       C  0.62695985  0.89875308  0.22422365     0.36500
N1099       N  0.63774286  0.88298129  0.26129516    -0.90000
H1100       H  0.57450886  0.86383563  0.21825482     0.17700
H1101       H  0.65844455  0.95988843  0.15364804     0.17700
N1102       N  0.59419617  0.94546714  0.11408619    -0.89100
H1103       H  0.64086040  0.85306443  0.25824143     0.35000
H1104       H  0.61467436  0.88800601  0.28037109     0.40100
H1105       H  0.58835514  0.97449505  0.11952724     0.39700
H1106       H  0.61789430  0.94416976  0.09513501     0.34600
C1107       C  0.60583023  0.85457666  0.08460576    -0.27100
C1108       C  0.57970883  0.83558708  0.10852902    -0.15200
C1109       C  0.58733579  0.79671493  0.11940794     0.35500
C1110       C  0.62190894  0.77809897  0.10642343    -0.26500
C1111       C  0.64921157  0.79820049  0.08364744    -0.15800
C1112       C  0.64050412  0.83714536  0.07302768     0.36500
N1113       N  0.66682181  0.85984466  0.05029771    -0.90000
H1114       H  0.59922490  0.88341270  0.07437887     0.17700
H1115       H  0.62817159  0.74861547  0.11527583     0.17700
N1116       N  0.56017831  0.77655486  0.14379280    -0.89100
H1117       H  0.67523772  0.88384823  0.06675997     0.35000
H1118       H  0.65107955  0.86999673  0.02625186     0.40100
H1119       H  0.55971584  0.79069682  0.17058178     0.39700
H1120       H  0.56996325  0.74837063  0.14927634     0.34600
C1121       C  0.41481528  0.92342131  0.16280702    -0.27100
C1122       C  0.44101241  0.89630335  0.17701361    -0.15200
C1123       C  0.43959352  0.88680178  0.21715999     0.35500
C1124       C  0.41139666  0.90438827  0.24193425    -0.26500
C1125       C  0.38606830  0.93355964  0.22780593    -0.15800
C1126       C  0.38905160  0.94294039  0.18695539     0.36500
N1127       N  0.36596817  0.97259966  0.16858001    -0.90000
H1128       H  0.41562012  0.93165195  0.13251730     0.17700
H1129       H  0.41002270  0.89583353  0.27219616     0.17700
N1130       N  0.46708336  0.85955945  0.23290927    -0.89100
H1131       H  0.34993668  0.96030743  0.14574373     0.35000
H1132       H  0.38485080  0.99329137  0.15687219     0.40100
H1133       H  0.45136307  0.83686170  0.24543200     0.39700
H1134       H  0.48297415  0.87330028  0.25496139     0.34600
C1135       C  0.40777497  0.85406182  0.09204121    -0.27100
C1136       C  0.43700814  0.83406807  0.11165406    -0.15200
C1137       C  0.43258341  0.79363574  0.11715434     0.35500
C1138       C  0.39969881  0.77383073  0.10114748    -0.26500
C1139       C  0.37010717  0.79404631  0.08080765    -0.15800
C1140       C  0.37416613  0.83552653  0.07820788     0.36500
N1141       N  0.34363280  0.86012656  0.06316257    -0.90000
H1142       H  0.41103202  0.88478782  0.08697635     0.17700
H1143       H  0.39716783  0.74285381  0.10513541     0.17700
N1144       N  0.46176654  0.77253608  0.13855279    -0.89100
H1145       H  0.35567248  0.87940230  0.04316579     0.35000
H1146       H  0.33355710  0.87716541  0.08598649     0.40100
H1147       H  0.47270713  0.75078123  0.12065670     0.39700
H1148       H  0.44813462  0.75920971  0.16214281     0.34600
C1149       C  0.52161262  0.88279089  0.03770266    -0.27100
C1150       C  0.50749214  0.84925006  0.05616920    -0.15200
C1151       C  0.49401767  0.81912784  0.03154235     0.35500
C1152       C  0.49290759  0.82408622  0.99029663    -0.26500
C1153       C  0.50670434  0.85809729  0.97209075    -0.15800
C1154       C  0.52204192  0.88712687  0.99680489     0.36500
N1155       N  0.53760237  0.92195317  0.98061225    -0.90000
H1156       H  0.53235105  0.90643402  0.05539797     0.17700
H1157       H  0.48150370  0.80086977  0.97255592     0.17700
N1158       N  0.48259823  0.78285637  0.04779364    -0.89100
H1159       H  0.56707435  0.92368376  0.98882454     0.35000
H1160       H  0.52316796  0.94511262  0.99363586     0.40100
H1161       H  0.45413550  0.77699047  0.03813006     0.39700
H1162       H  0.50092575  0.76150576  0.03654108     0.34600
C1163       C  0.61342321  0.09490552  0.77607359    -0.27100
C1164       C  0.64344342  0.07667529  0.79783761    -0.15200
C1165       C  0.63630228  0.07066819  0.83849823     0.35500
C1166       C  0.59915400  0.07652317  0.85385918    -0.26500
C1167       C  0.57014181  0.09589637  0.83321959    -0.15800
C1168       C  0.57797065  0.10664594  0.79405705     0.36500
N1169       N  0.55091157  0.13008663  0.77231972    -0.90000
H1170       H  0.61818798  0.10178516  0.74575818     0.17700
H1171       H  0.59361769  0.06761890  0.88335437     0.17700
N1172       N  0.66706423  0.06067667  0.86553593    -0.89100
H1173       H  0.54724760  0.15609580  0.78724368     0.35000
H1174       H  0.52383816  0.11615518  0.77135156     0.40100
H1175       H  0.65904636  0.03641660  0.88177889     0.39700
H1176       H  0.67031009  0.08359646  0.88502128     0.34600
C1177       C  0.57880941  0.19178699  0.88021475    -0.27100
C1178       C  0.57304542  0.15499001  0.89699443    -0.15200
C1179       C  0.59972449  0.14162268  0.92518861     0.35500
C1180       C  0.63249100  0.16386968  0.93433025    -0.26500
C1181       C  0.63870287  0.20083405  0.91824483    -0.15800
C1182       C  0.61104849  0.21499429  0.89082215     0.36500
N1183       N  0.61519212  0.25210053  0.87276229    -0.90000
H1184       H  0.55773966  0.20275804  0.85915327     0.17700
H1185       H  0.65369250  0.15166331  0.95413941     0.17700
N1186       N  0.59354479  0.10580300  0.94527519    -0.89100
H1187       H  0.64207703  0.25289055  0.85853941     0.35000
H1188       H  0.61513434  0.27317431  0.89444039     0.40100
H1189       H  0.59136483  0.11186878  0.97490620     0.39700
H1190       H  0.61841925  0.08854882  0.94186263     0.34600
C1191       C  0.36058744  0.06928277  0.84215137    -0.27100
C1192       C  0.35932933  0.06478581  0.80131116    -0.15200
C1193       C  0.39064099  0.08030606  0.77972947     0.35500
C1194       C  0.42268647  0.09733568  0.79932412    -0.26500
C1195       C  0.42516430  0.09840982  0.84030638    -0.15800
C1196       C  0.39336962  0.08426208  0.86165765     0.36500
N1197       N  0.39496435  0.08267880  0.90320437    -0.90000
H1198       H  0.33639040  0.05958097  0.85979671     0.17700
H1199       H  0.44666098  0.10866937  0.78237091     0.17700
N1200       N  0.39135848  0.07842375  0.73822177    -0.89100
H1201       H  0.37060250  0.09747276  0.91381507     0.35000
H1202       H  0.39270681  0.05376747  0.91187764     0.40100
H1203       H  0.36703601  0.09335739  0.72720044     0.39700
H1204       H  0.38940233  0.04941398  0.72999965     0.34600
C1205       C  0.42144196  0.15584329  0.94368679    -0.27100
C1206       C  0.43284536  0.16067717  0.90524285    -0.15200
C1207       C  0.41667257  0.19202849  0.88382970     0.35500
C1208       C  0.38857599  0.21682019  0.90121165    -0.26500
C1209       C  0.37802811  0.21177190  0.94040676    -0.15800
C1210       C  0.39688672  0.18217683  0.96170351     0.36500
N1211       N  0.38927080  0.17730392  0.00200270    -0.90000
H1212       H  0.43234978  0.13158232  0.96058049     0.17700
H1213       H  0.37362163  0.23837297  0.88358930     0.17700
N1214       N  0.42816085  0.19832443  0.84444231    -0.89100
H1215       H  0.37799339  0.14947388  0.00590344     0.35000
H1216       H  0.41610334  0.17910427  0.01664974     0.40100
H1217       H  0.43952950  0.22629935  0.84232360     0.39700
H1218       H  0.40307008  0.19692697  0.82689244     0.34600
C1219       C  0.50228474  0.97854236  0.82221189    -0.27100
C1220       C  0.49594321  0.96187103  0.85904887    -0.15200
C1221       C  0.48718210  0.98712700  0.88994672     0.35500
C1222       C  0.48712784  0.02749785  0.88443400    -0.26500
C1223       C  0.49567063  0.04475100  0.84847366    -0.15800
C1224       C  0.50186104  0.01933101  0.81650819     0.36500
N1225       N  0.50701006  0.03348742  0.77785316    -0.90000
H1226       H  0.50808235  0.95979716  0.79778891     0.17700
H1227       H  0.48117058  0.04575006  0.90918123     0.17700
N1228       N  0.48003796  0.97201296  0.92795872    -0.89100
H1229       H  0.53286002  0.04921882  0.77691747     0.35000
H1230       H  0.48350119  0.05146556  0.77057009     0.40100
H1231       H  0.45225150  0.98117997  0.93643955     0.39700
H1232       H  0.50023164  0.98496095  0.94675809     0.34600
C1233       C  0.58551049  0.09828280  0.18725093    -0.27100
C1234       C  0.57687076  0.08719463  0.14874187    -0.15200
C1235       C  0.59928756  0.05860920  0.13107084     0.35500
C1236       C  0.62926060  0.04087728  0.15226768    -0.26500
C1237       C  0.63777566  0.05019486  0.19156971    -0.15800
C1238       C  0.61581122  0.08025360  0.20876339     0.36500
N1239       N  0.62379571  0.09355372  0.24733735    -0.90000
H1240       H  0.56779701  0.12025322  0.20099176     0.17700
H1241       H  0.64660376  0.02001730  0.13684401     0.17700
N1242       N  0.59104942  0.04712716  0.09171518    -0.89100
H1243       H  0.65246965  0.10399728  0.24845853     0.35000
H1244       H  0.62128403  0.07013802  0.26646554     0.40100
H1245       H  0.56390917  0.03329332  0.09117930     0.39700
H1246       H  0.61170078  0.02719341  0.08188830     0.34600
C1247       C  0.61146478  0.21668128  0.08818624    -0.27100
C1248       C  0.63998431  0.20104686  0.06340168    -0.15200
C1249       C  0.63648219  0.16104246  0.05423412     0.35500
C1250       C  0.60432173  0.13904661  0.06707673    -0.26500
C1251       C  0.57558326  0.15468706  0.09091696    -0.15800
C1252       C  0.57950553  0.19403067  0.10191069     0.36500
N1253       N  0.55059347  0.21102691  0.12662300    -0.90000
H1254       H  0.61370717  0.24680141  0.09639593     0.17700
H1255       H  0.60160655  0.10952513  0.05741971     0.17700
N1256       N  0.66646447  0.14146042  0.03335394    -0.89100
H1257       H  0.55730287  0.23999641  0.13209056     0.35000
H1258       H  0.55196068  0.19660122  0.15337716     0.40100
H1259       H  0.65316309  0.12626305  0.01076477     0.39700
H1260       H  0.67822260  0.12028325  0.05183819     0.34600
C1261       C  0.40365605  0.12319523  0.16971800    -0.27100
C1262       C  0.43743205  0.09954515  0.16842751    -0.15200
C1263       C  0.43925627  0.07217835  0.19977265     0.35500
C1264       C  0.40436336  0.05722865  0.21535775    -0.26500
C1265       C  0.36846991  0.07520231  0.20765817    -0.15800
C1266       C  0.36902428  0.11096950  0.18786657     0.36500
N1267       N  0.33524606  0.13560393  0.18578613    -0.90000
H1268       H  0.40367290  0.15206454  0.15830041     0.17700
H1269       H  0.40559814  0.03291333  0.23532295     0.17700
N1270       N  0.47348779  0.06792437  0.22378059    -0.89100
H1271       H  0.34292610  0.16213876  0.19812541     0.35000
H1272       H  0.31299799  0.12469301  0.20320955     0.40100
H1273       H  0.49721800  0.08367572  0.21340137     0.39700
H1274       H  0.48001776  0.03862635  0.22723728     0.34600
C1275       C  0.43627029  0.19866637  0.10003863    -0.27100
C1276       C  0.43425672  0.15792687  0.09570538    -0.15200
C1277       C  0.39799510  0.14172253  0.08520099     0.35500
C1278       C  0.36467748  0.16520389  0.08333910    -0.26500
C1279       C  0.36594694  0.20588812  0.08686719    -0.15800
C1280       C  0.40286807  0.22266586  0.09457284     0.36500
N1281       N  0.40747289  0.26375330  0.09579675    -0.90000
H1282       H  0.46404842  0.21191844  0.10738974     0.17700
H1283       H  0.33795022  0.15097750  0.07623475     0.17700
N1284       N  0.39410444  0.10165787  0.07538971    -0.89100
H1285       H  0.38883869  0.27455189  0.11709896     0.35000
H1286       H  0.39851670  0.27513619  0.06894527     0.40100
H1287       H  0.41376147  0.09544418  0.05315351     0.39700
H1288       H  0.40124601  0.08469306  0.09951878     0.34600
C1289       C  0.48547727  0.97087995  0.12520943    -0.27100
C1290       C  0.50733294  0.95237982  0.15497610    -0.15200
C1291       C  0.52690856  0.97704271  0.18146830     0.35500
C1292       C  0.52693081  0.01790746  0.17573476    -0.26500
C1293       C  0.50388725  0.03664485  0.14667533    -0.15800
C1294       C  0.48198229  0.01178036  0.12212301     0.36500
N1295       N  0.45624832  0.02767289  0.09322372    -0.90000
H1296       H  0.47082799  0.95327523  0.10360206     0.17700
H1297       H  0.54338077  0.03504303  0.19622295     0.17700
N1298       N  0.54558822  0.96123585  0.21533383    -0.89100
H1299       H  0.42792132  0.01854069  0.09980860     0.35000
H1300       H  0.46332830  0.01516777  0.06664571     0.40100
H1301       H  0.53176440  0.97274385  0.23966877     0.39700
H1302       H  0.57455835  0.97088346  0.21587282     0.34600
C1303       C  0.50953698  0.10952470  0.97524202    -0.27100
C1304       C  0.50652855  0.14425635  0.95418137    -0.15200
C1305       C  0.50317289  0.17883591  0.97598896     0.35500
C1306       C  0.50148250  0.17761745  0.01762408    -0.26500
C1307       C  0.50337849  0.14224123  0.03845645    -0.15800
C1308       C  0.50867922  0.10827097  0.01625927     0.36500
N1309       N  0.51354809  0.07175593  0.03528235    -0.90000
H1310       H  0.51251891  0.08262296  0.95954039     0.17700
H1311       H  0.49878373  0.20437942  0.03359874     0.17700
N1312       N  0.50083800  0.21512502  0.95600197    -0.89100
H1313       H  0.54092789  0.06085170  0.02755732     0.35000
H1314       H  0.49252183  0.05314024  0.02363586     0.40100
H1315       H  0.52399224  0.23235477  0.96578632     0.39700
H1316       H  0.47467826  0.22858728  0.96383418     0.34600
C1317       C  0.89477344  0.80761703  0.58396659    -0.27100
C1318       C  0.91036057  0.84436477  0.57515159    -0.15200
C1319       C  0.94575879  0.85522947  0.59326707     0.35500
C1320       C  0.96541469  0.82933261  0.61777778    -0.26500
C1321       C  0.94904952  0.79374141  0.62920052    -0.15800
C1322       C  0.91288262  0.78294826  0.61182275     0.36500
N1323       N  0.89325580  0.74806833  0.62268588    -0.90000
H1324       H  0.86808342  0.79834881  0.56958779     0.17700
H1325       H  0.99261506  0.83890203  0.63061639     0.17700
N1326       N  0.96090850  0.89358702  0.58858400    -0.89100
H1327       H  0.88711257  0.74925176  0.65235788     0.35000
H1328       H  0.91211689  0.72481058  0.61774515     0.40100
H1329       H  0.96044734  0.90702611  0.61572222     0.39700
H1330       H  0.99035429  0.89139396  0.58103516     0.34600
C1331       C  0.79507922  0.91630157  0.56421623    -0.27100
C1332       C  0.83375850  0.90331907  0.57404718    -0.15200
C1333       C  0.84267897  0.90123812  0.61410755     0.35500
C1334       C  0.81394357  0.90946354  0.64167436    -0.26500
C1335       C  0.77829536  0.92808758  0.63207021    -0.15800
C1336       C  0.76873678  0.93091813  0.59231676     0.36500
N1337       N  0.73387122  0.95028919  0.57955615    -0.90000
H1338       H  0.78604939  0.91791306  0.53403471     0.17700
H1339       H  0.82301738  0.90789831  0.67173008     0.17700
N1340       N  0.88180245  0.89618460  0.62791483    -0.89100
H1341       H  0.73482557  0.97876249  0.58963571     0.35000
H1342       H  0.71001139  0.93651964  0.59239512     0.40100
H1343       H  0.89005074  0.92104060  0.64312367     0.39700
H1344       H  0.88224251  0.87299446  0.64753361     0.34600
C1345       C  0.86492060  0.92876881  0.40570111    -0.27100
C1346       C  0.84479837  0.90869459  0.43420186    -0.15200
C1347       C  0.80566325  0.89750705  0.42675825     0.35500
C1348       C  0.78751701  0.90672867  0.39067917    -0.26500
C1349       C  0.80839069  0.92618493  0.36155988    -0.15800
C1350       C  0.84821364  0.93560013  0.36918985     0.36500
N1351       N  0.87316895  0.94955869  0.33915614    -0.90000
H1352       H  0.89446024  0.93850742  0.41139586     0.17700
H1353       H  0.75722767  0.89891360  0.38560097     0.17700
N1354       N  0.78418622  0.87737232  0.45603367    -0.89100
H1355       H  0.88748576  0.97444454  0.34880337     0.35000
H1356       H  0.89491391  0.92874005  0.33484927     0.40100
H1357       H  0.77476187  0.85109100  0.44436677     0.39700
H1358       H  0.75942954  0.89383249  0.46255825     0.34600
C1359       C  0.93108216  0.86558317  0.40828260    -0.27100
C1360       C  0.90699079  0.84697678  0.43470139    -0.15200
C1361       C  0.89708451  0.80772927  0.42768752     0.35500
C1362       C  0.91061271  0.78862641  0.39397803    -0.26500
C1363       C  0.93372262  0.80795104  0.36633859    -0.15800
C1364       C  0.94317755  0.84781087  0.37410725     0.36500
N1365       N  0.96511298  0.87199258  0.34829188    -0.90000
H1366       H  0.94131634  0.89452784  0.41445317     0.17700
H1367       H  0.90283445  0.75862863  0.38939220     0.17700
N1368       N  0.87337709  0.78658512  0.45445238    -0.89100
H1369       H  0.95015880  0.87478665  0.32178068     0.35000
H1370       H  0.99313821  0.86059767  0.34457157     0.40100
H1371       H  0.84688127  0.80137356  0.45749788     0.39700
H1372       H  0.88760384  0.78610299  0.48146568     0.34600
C1373       C  0.87814812  0.19893945  0.57266206    -0.27100
C1374       C  0.90044354  0.16671796  0.56048984    -0.15200
C1375       C  0.93494281  0.15750609  0.58092313     0.35500
C1376       C  0.94721870  0.18103284  0.61148860    -0.26500
C1377       C  0.92573105  0.21344674  0.62410296    -0.15800
C1378       C  0.89037689  0.22210620  0.60461725     0.36500
N1379       N  0.86761914  0.25474997  0.61617057    -0.90000
H1380       H  0.85122947  0.20604915  0.55735480     0.17700
H1381       H  0.97493138  0.17410176  0.62482426     0.17700
N1382       N  0.95699849  0.12349552  0.57129614    -0.89100
H1383       H  0.83965682  0.24489245  0.62321602     0.35000
H1384       H  0.86490146  0.27333949  0.59224332     0.40100
H1385       H  0.93967852  0.09927908  0.57694972     0.39700
H1386       H  0.98216293  0.12094813  0.58859038     0.34600
C1387       C  0.76998790  0.09409280  0.60095238    -0.27100
C1388       C  0.78766841  0.09881648  0.63749027    -0.15200
C1389       C  0.82667490  0.11165867  0.63868162     0.35500
C1390       C  0.84900412  0.11219936  0.60442123    -0.26500
C1391       C  0.83172989  0.10907060  0.56714928    -0.15800
C1392       C  0.79029112  0.10261465  0.56627690     0.36500
N1393       N  0.76697514  0.10682992  0.53168292    -0.90000
H1394       H  0.73960937  0.08526664  0.59934545     0.17700
H1395       H  0.88009323  0.11499423  0.60769785     0.17700
N1396       N  0.84372527  0.12383473  0.67485171    -0.89100
H1397       H  0.75602222  0.07962809  0.52436075     0.35000
H1398       H  0.78268219  0.11837899  0.50859952     0.40100
H1399       H  0.82735634  0.14728969  0.68480641     0.39700
H1400       H  0.87195840  0.13448790  0.67040542     0.34600
C1401       C  0.91014910  0.21271902  0.37782497    -0.27100
C1402       C  0.92752965  0.18993793  0.34890390    -0.15200
C1403       C  0.92925087  0.14899473  0.35575742     0.35500
C1404       C  0.91581231  0.13281274  0.39063865    -0.26500
C1405       C  0.89842437  0.15526210  0.41916851    -0.15800
C1406       C  0.89519511  0.19582973  0.41231108     0.36500
N1407       N  0.87573477  0.22043700  0.43937888    -0.90000
H1408       H  0.90730824  0.24362357  0.37332108     0.17700
H1409       H  0.91951078  0.10212034  0.39552547     0.17700
N1410       N  0.94401138  0.12285486  0.32712181    -0.89100
H1411       H  0.84741891  0.20981959  0.44340680     0.35000
H1412       H  0.89059599  0.21923721  0.46599731     0.40100
H1413       H  0.92121388  0.10440054  0.31887558     0.39700
H1414       H  0.96581560  0.10570982  0.33992399     0.34600
C1415       C  0.83109255  0.04261485  0.37358663    -0.27100
C1416       C  0.79978449  0.06314229  0.35645449    -0.15200
C1417       C  0.78799743  0.09818908  0.37369863     0.35500
C1418       C  0.80768002  0.11157866  0.40725547    -0.26500
C1419       C  0.83935063  0.09081365  0.42377462    -0.15800
C1420       C  0.85138069  0.05631384  0.40623399     0.36500
N1421       N  0.88470231  0.03554664  0.42101158    -0.90000
H1422       H  0.84100397  0.01642811  0.36021288     0.17700
H1423       H  0.79845946  0.13847028  0.42040217     0.17700
N1424       N  0.75756120  0.12146597  0.35684670    -0.89100
H1425       H  0.87579751  0.00757081  0.42819489     0.35000
H1426       H  0.90512748  0.03325366  0.39871190     0.40100
H1427       H  0.73202835  0.10489255  0.35564855     0.39700
H1428       H  0.76548968  0.12861960  0.32843642     0.34600
C1429       C  0.87145473  0.02652168  0.52819066    -0.27100
C1430       C  0.84417970  0.04539242  0.50357393    -0.15200
C1431       C  0.81651283  0.02096188  0.48409606     0.35500
C1432       C  0.82067684  0.97997941  0.48562998    -0.26500
C1433       C  0.85034257  0.96144130  0.50766722    -0.15800
C1434       C  0.87451215  0.98571883  0.53071001     0.36500
N1435       N  0.90339674  0.96922071  0.55623753    -0.90000
H1436       H  0.89211452  0.04370836  0.54476192     0.17700
H1437       H  0.79973405  0.96261440  0.46981983     0.17700
N1438       N  0.78363202  0.03609342  0.46265354    -0.89100
H1439       H  0.89689795  0.97781932  0.58454832     0.35000
H1440       H  0.93050165  0.98111224  0.54915845     0.40100
H1441       H  0.78175395  0.06592601  0.46569545     0.39700
H1442       H  0.75827468  0.02496440  0.47523639     0.34600
C1443       C  0.19150781  0.08809854  0.56852228    -0.27100
C1444       C  0.15043731  0.09354381  0.57051823    -0.15200
C1445       C  0.13287805  0.09088696  0.60722624     0.35500
C1446       C  0.15572177  0.08103688  0.64010161    -0.26500
C1447       C  0.19596486  0.07138916  0.63743165    -0.15800
C1448       C  0.21420093  0.07691303  0.60140182     0.36500
N1449       N  0.25511213  0.06930635  0.59747601    -0.90000
H1450       H  0.20599490  0.09157582  0.54087353     0.17700
H1451       H  0.14091733  0.07795167  0.66766899     0.17700
N1452       N  0.09146235  0.09567005  0.61108241    -0.89100
H1453       H  0.26836382  0.09450862  0.58709796     0.35000
H1454       H  0.25846426  0.04780173  0.57650154     0.40100
H1455       H  0.08652433  0.11778535  0.63109310     0.39700
H1456       H  0.08001309  0.07008197  0.62258761     0.34600
C1457       C  0.05508636  0.17876747  0.56444375    -0.27100
C1458       C  0.09344606  0.16559574  0.55782255    -0.15200
C1459       C  0.12430095  0.18845346  0.57414610     0.35500
C1460       C  0.11521172  0.21879115  0.60025986    -0.26500
C1461       C  0.07647951  0.23183414  0.60492244    -0.15800
C1462       C  0.04758040  0.21464530  0.58171569     0.36500
N1463       N  0.00934718  0.23178257  0.57954118    -0.90000
H1464       H  0.03033215  0.16161205  0.55578902     0.17700
H1465       H  0.13841604  0.23175650  0.61742704     0.17700
N1466       N  0.16466825  0.18287783  0.56453070    -0.89100
H1467       H  0.99208688  0.21693847  0.55933615     0.35000
H1468       H  0.01257355  0.25965062  0.56812019     0.40100
H1469       H  0.16794908  0.16490164  0.54055237     0.39700
H1470       H  0.17877966  0.17033010  0.58854681     0.34600
C1471       C  0.10169366  0.18368777  0.41484106    -0.27100
C1472       C  0.09137701  0.14476098  0.42185994    -0.15200
C1473       C  0.06294872  0.12752592  0.39835941     0.35500
C1474       C  0.04506795  0.14901548  0.36878123    -0.26500
C1475       C  0.05557847  0.18775938  0.36033631    -0.15800
C1476       C  0.08449294  0.20526353  0.38393647     0.36500
N1477       N  0.09655227  0.24433760  0.37647597    -0.90000
H1478       H  0.12250380  0.19751795  0.43420637     0.17700
H1479       H  0.02347764  0.13422567  0.35135954     0.17700
N1480       N  0.05117623  0.08833834  0.40525703    -0.89100
H1481       H  0.11862403  0.25246961  0.39601923     0.35000
H1482       H  0.07259282  0.26229420  0.38190451     0.40100
H1483       H  0.05621869  0.07253043  0.37997277     0.39700
H1484       H  0.02103842  0.08816254  0.41022650     0.34600
C1485       C  0.20914757  0.09312653  0.38184924    -0.27100
C1486       C  0.20713269  0.05408649  0.37024296    -0.15200
C1487       C  0.18031787  0.02998329  0.39065663     0.35500
C1488       C  0.15402196  0.04534167  0.41729817    -0.26500
C1489       C  0.15627685  0.08348045  0.42954161    -0.15800
C1490       C  0.18503596  0.10760679  0.41229208     0.36500
N1491       N  0.18954550  0.14666903  0.42556506    -0.90000
H1492       H  0.22894541  0.11244062  0.36692634     0.17700
H1493       H  0.13174494  0.02650395  0.42887729     0.17700
N1494       N  0.17835278  0.98934252  0.38385722    -0.89100
H1495       H  0.21175841  0.16058566  0.41022585     0.35000
H1496       H  0.19868767  0.14548771  0.45463194     0.40100
H1497       H  0.14985141  0.98299159  0.37466678     0.39700
H1498       H  0.18335769  0.97517860  0.41036440     0.34600
C1499       C  0.01278656  0.10916642  0.48976182    -0.27100
C1500       C  0.03621320  0.14234604  0.48765017    -0.15200
C1501       C  0.01655418  0.17829436  0.48263210     0.35500
C1502       C  0.97476281  0.18026279  0.48421065    -0.26500
C1503       C  0.95182499  0.14655597  0.48869707    -0.15800
C1504       C  0.97163591  0.11070293  0.48901519     0.36500
N1505       N  0.94983724  0.07534584  0.48958772    -0.90000
H1506       H  0.02652332  0.08142218  0.49197500     0.17700
H1507       H  0.96040691  0.20811486  0.48201076     0.17700
N1508       N  0.03880466  0.21284005  0.47702428    -0.89100
H1509       H  0.95833746  0.05952135  0.51421596     0.35000
H1510       H  0.95750231  0.05934104  0.46509541     0.40100
H1511       H  0.03161602  0.23232729  0.49893638     0.39700
H1512       H  0.03001301  0.22513871  0.45054037     0.34600
C1513       C  0.09007228  0.77368151  0.61679627    -0.27100
C1514       C  0.07413340  0.79465085  0.64771921    -0.15200
C1515       C  0.07326117  0.83614156  0.64412692     0.35500
C1516       C  0.08571679  0.85457802  0.61014844    -0.26500
C1517       C  0.10061121  0.83369410  0.57928083    -0.15800
C1518       C  0.10418211  0.79291862  0.58307460     0.36500
N1519       N  0.12184527  0.77117094  0.55235469    -0.90000
H1520       H  0.09215196  0.74250221  0.61913454     0.17700
H1521       H  0.08298505  0.88574114  0.60768218     0.17700
N1522       N  0.05950514  0.86045626  0.67486563    -0.89100
H1523       H  0.12229844  0.74170425  0.55928689     0.35000
H1524       H  0.15099518  0.77996993  0.55027415     0.40100
H1525       H  0.03669701  0.87779413  0.66420020     0.39700
H1526       H  0.08239220  0.87869771  0.68336160     0.34600
C1527       C  0.21754461  0.89536359  0.61739785    -0.27100
C1528       C  0.20966067  0.93296095  0.63074755    -0.15200
C1529       C  0.17797936  0.95330339  0.61315028     0.35500
C1530       C  0.15313818  0.93548109  0.58676181    -0.26500
C1531       C  0.16095571  0.89877994  0.57308906    -0.15800
C1532       C  0.19385260  0.87851815  0.58793160     0.36500
N1533       N  0.20266939  0.84069453  0.57378409    -0.90000
H1534       H  0.24042206  0.87832575  0.63121342     0.17700
H1535       H  0.12779625  0.95124925  0.57604919     0.17700
N1536       N  0.16915130  0.99207853  0.62355337    -0.89100
H1537       H  0.20224708  0.82150304  0.59734314     0.35000
H1538       H  0.23106318  0.84114672  0.56276156     0.40100
H1539       H  0.14097154  0.99274965  0.63515825     0.39700
H1540       H  0.16864035  0.00839149  0.59789787     0.34600
C1541       C  0.12156483  0.79726065  0.42513784    -0.27100
C1542       C  0.09543173  0.82577356  0.43886188    -0.15200
C1543       C  0.05795345  0.82755547  0.42230355     0.35500
C1544       C  0.04543325  0.79868379  0.39712285    -0.26500
C1545       C  0.07201534  0.77317347  0.37924708    -0.15800
C1546       C  0.11080473  0.77225063  0.39419776     0.36500
N1547       N  0.13982793  0.74727193  0.37816454    -0.90000
H1548       H  0.15083999  0.79554484  0.43737452     0.17700
H1549       H  0.01539845  0.80037237  0.38697623     0.17700
N1550       N  0.03354939  0.86062380  0.42798670    -0.89100
H1551       H  0.14316400  0.75420596  0.34881815     0.35000
H1552       H  0.12959981  0.71885940  0.38010499     0.40100
H1553       H  0.03064400  0.87504608  0.40138733     0.39700
H1554       H  0.00582310  0.85076526  0.43565015     0.34600
C1555       C  0.21983171  0.89583467  0.39852561    -0.27100
C1556       C  0.19958436  0.90609680  0.36427968    -0.15200
C1557       C  0.15750497  0.90397130  0.36488971     0.35500
C1558       C  0.13782509  0.89618471  0.39925339    -0.26500
C1559       C  0.15794926  0.88835520  0.43357457    -0.15800
C1560       C  0.19933397  0.88620121  0.43280692     0.36500
N1561       N  0.22052321  0.87273010  0.46632599    -0.90000
H1562       H  0.25152294  0.89573772  0.39894158     0.17700
H1563       H  0.10612078  0.89693628  0.39915233     0.17700
N1564       N  0.13306433  0.90997081  0.33140304    -0.89100
H1565       H  0.23487877  0.84718288  0.45871469     0.35000
H1566       H  0.24209070  0.89301317  0.47312912     0.40100
H1567       H  0.14307632  0.89226677  0.30924129     0.39700
H1568       H  0.13359274  0.93900073  0.32300263     0.34600
C1569       C  0.10922529  0.96889071  0.49856683    -0.27100
C1570       C  0.14496615  0.94883460  0.50029675    -0.15200
C1571       C  0.17913828  0.97207326  0.50394363     0.35500
C1572       C  0.17661452  0.01357996  0.50454641    -0.26500
C1573       C  0.14020324  0.03325325  0.50359626    -0.15800
C1574       C  0.10649795  0.00962640  0.50131446     0.36500
N1575       N  0.06864851  0.02697569  0.50105948    -0.90000
H1576       H  0.08251944  0.95272126  0.49581087     0.17700
H1577       H  0.20331882  0.03031873  0.50564270     0.17700
N1578       N  0.21654651  0.95391456  0.50740854    -0.89100
H1579       H  0.05304173  0.01588071  0.52460003     0.35000
H1580       H  0.05420014  0.01871004  0.47549647     0.40100
H1581       H  0.23395960  0.96416318  0.48477079     0.39700
H1582       H  0.22930334  0.96272485  0.53363468     0.34600
C1583       C  0.97653919  0.81672778  0.50809692    -0.27100
C1584       C  0.95897741  0.85361967  0.50547524    -0.15200
C1585       C  0.98387370  0.88605708  0.50452783     0.35500
C1586       C  0.02465267  0.88166417  0.50903535    -0.26500
C1587       C  0.04287675  0.84522048  0.51068176    -0.15800
C1588       C  0.01794298  0.81218521  0.50973975     0.36500
N1589       N  0.03345434  0.77378626  0.50993273    -0.90000
H1590       H  0.95807051  0.79132081  0.50859830     0.17700
H1591       H  0.04245951  0.90723322  0.50947624     0.17700
N1592       N  0.96772661  0.92400300  0.49948471    -0.89100
H1593       H  0.04761135  0.76911412  0.53644655     0.35000
H1594       H  0.05374839  0.77129008  0.48757375     0.40100
H1595       H  0.97929851  0.93579007  0.47403880     0.39700
H1596       H  0.97744134  0.94098026  0.52266175     0.34600
loop_ 
_geom_bond_atom_site_label_1 
_geom_bond_atom_site_label_2 
_geom_bond_distance 
_geom_bond_site_symmetry_2 
_ccdc_geom_bond_type 
C1            C2   1.416       .  A
C1            C6   1.423       .  A
C1         C1587   1.527       .  S
C2            C3   1.438       .  A
C2         C1517   1.499       .  S
C3            C4   1.425       .  A
C3         C1531   1.481       .  S
C4            C5   1.420       .  A
C4         C1570   1.546       .  S
C5            C6   1.439       .  A
C5         C1559   1.491       .  S
C6         C1542   1.499       .  S
C7            C8   1.434       .  A
C7           C12   1.439       .  A
C7         C1573   1.545       .  S
C8            C9   1.433       .  A
C8         C1489   1.509       .  S
C9           C10   1.411       .  A
C9         C1472   1.484       .  S
C10          C11   1.428       .  A
C10        C1500   1.534       .  S
C11          C12   1.458       .  A
C11        C1458   1.525       .  S
C12        C1444   1.512       .  S
C13          C14   1.430       .  A
C13          C18   1.407       .  A
C13        C1503   1.523       .  S
C14          C15   1.449       .  A
C14        C1374   1.497       .  S
C15          C16   1.440       .  A
C15        C1391   1.538       .  S
C16          C17   1.444       .  A
C16        C1430   1.543       .  S
C17          C18   1.436       .  A
C17        C1419   1.490       .  S
C18        C1405   1.513       .  S
C19          C20   1.425       .  A
C19          C24   1.408       .  A
C19        C1584   1.520       .  S
C20          C21   1.463       .  A
C20        C1318   1.497       .  S
C21          C22   1.432       .  A
C21        C1332   1.539       .  S
C22          C23   1.428       .  A
C22        C1433   1.541       .  S
C23          C24   1.433       .  A
C23        C1346   1.489       .  S
C24        C1360   1.505       .  S
C25          C26   1.438       .  A
C25          C30   1.412       .  A
C25        C1307   1.534       .  S
C26          C27   1.473       .  A
C26        C1276   1.503       .  S
C27          C28   1.438       .  A
C27        C1262   1.560       .  S
C28          C29   1.430       .  A
C28        C1293   1.556       .  S
C29          C30   1.433       .  A
C29        C1234   1.475       .  S
C30        C1251   1.517       .  S
C31          C32   1.414       .  A
C31          C36   1.424       .  A
C31        C1304   1.533       .  S
C32          C33   1.437       .  A
C32        C1178   1.486       .  S
C33          C34   1.425       .  A
C33        C1167   1.505       .  S
C34          C35   1.430       .  A
C34        C1223   1.528       .  S
C35          C36   1.443       .  A
C35        C1195   1.502       .  S
C36        C1206   1.499       .  S
C37          C38   1.425       .  A
C37          C42   1.422       .  A
C37        C1290   1.542       .  S
C38          C39   1.447       .  A
C38        C1122   1.501       .  S
C39          C40   1.424       .  A
C39        C1136   1.497       .  S
C40          C41   1.418       .  A
C40        C1150   1.536       .  S
C41          C42   1.435       .  A
C41        C1108   1.488       .  S
C42        C1094   1.495       .  S
C43          C44   1.424       .  A
C43          C48   1.415       .  A
C43        C1220   1.523       .  S
C44          C45   1.447       .  A
C44        C1038   1.501       .  S
C45          C46   1.426       .  A
C45        C1052   1.510       .  S
C46          C47   1.426       .  A
C46        C1153   1.537       .  S
C47          C48   1.435       .  A
C47        C1080   1.488       .  S
C48        C1069   1.500       .  S
C49          C50   1.407       .  A
C49          C54   1.421       .  A
C49        C1024   1.527       .  S
C50          C51   1.430       .  A
C50         C982   1.494       .  S
C51          C52   1.426       .  A
C51         C996   1.473       .  S
C52          C53   1.418       .  A
C52        C1010   1.537       .  S
C53          C54   1.446       .  A
C53         C968   1.508       .  S
C54         C954   1.490       .  S
C55          C56   1.425       .  A
C55          C60   1.423       .  A
C55        C1013   1.546       .  S
C56          C57   1.448       .  A
C56         C926   1.497       .  S
C57          C58   1.422       .  A
C57         C912   1.498       .  S
C58          C59   1.424       .  A
C58         C940   1.548       .  S
C59          C60   1.437       .  A
C59         C884   1.466       .  S
C60         C901   1.514       .  S
C61          C62   1.430       .  A
C61          C66   1.432       .  A
C61         C943   1.552       .  S
C62          C63   1.445       .  A
C62         C845   1.490       .  S
C63          C64   1.422       .  A
C63         C859   1.524       .  S
C64          C65   1.440       .  A
C64         C870   1.548       .  S
C65          C66   1.461       .  A
C65         C828   1.499       .  S
C66         C814   1.527       .  S
C67          C68   1.405       .  A
C67          C72   1.426       .  A
C67        C1027   1.526       .  S
C68          C69   1.430       .  A
C68         C758   1.483       .  S
C69          C70   1.413       .  A
C69         C772   1.489       .  S
C70          C71   1.439       .  A
C70         C873   1.536       .  S
C71          C72   1.463       .  A
C71         C803   1.531       .  S
C72         C789   1.510       .  S
O73          C81   1.259       .  A
O73         Co93   1.936       .  S
O74          C82   1.258       .  A
O74         Co94   1.927   1_545  S
O75          C83   1.282       .  A
O75         Co95   2.029       .  S
O76          C84   1.279       .  A
O76         Co96   2.000       .  S
O77          C83   1.261       .  A
O77         Co94   1.936       .  S
O78          C84   1.266       .  A
O78         Co93   1.953   1_545  S
O79          C82   1.278       .  A
O79         Co96   1.992       .  S
O80          C81   1.271       .  A
O80         Co95   1.996       .  S
C81         C744   1.455       .  S
C82         C716   1.433       .  S
C83         C702   1.462       .  S
C84         C730   1.457       .  S
O85          C98   1.270       .  A
O85         Co93   2.007   1_545  S
O86          C99   1.256       .  A
O86         Co94   1.963       .  S
O87         C100   1.291       .  A
O87         Co95   2.030       .  S
O88         C101   1.278       .  A
O88         Co96   2.000       .  S
O89         C101   1.273       .  A
O89         Co94   2.013   1_545  S
O90         C100   1.267       .  A
O90         Co93   1.963       .  S
O91          C98   1.277       .  A
O91         Co96   2.015       .  S
O92          C99   1.289       .  A
O92         Co95   2.061       .  S
Co93         O97   2.085       .  S
Co94         O97   2.079       .  S
Co95         O97   2.066       .  S
Co96         O97   1.982   1_545  S
C98        C1447   1.508       .  S
C99        C1066   1.512       .  S
C100       C1528   1.488       .  S
C101       C1192   1.506       .  S
O102        C110   1.258       .  A
O102       Co122   1.939       .  S
O103        C111   1.273       .  A
O103       Co123   1.909   1_655  S
O104        C112   1.266       .  A
O104       Co124   1.993       .  S
O105        C113   1.286       .  A
O105       Co125   2.051       .  S
O106        C112   1.259       .  A
O106       Co123   1.969       .  S
O107        C113   1.264       .  A
O107       Co122   1.911   1_655  S
O108        C111   1.276       .  A
O108       Co125   2.025       .  S
O109        C110   1.265       .  A
O109       Co124   1.992       .  S
C110        C733   1.454       .  S
C111        C663   1.450       .  S
C112        C674   1.460       .  S
C113        C688   1.484       .  S
O114        C127   1.242       .  A
O114       Co122   1.942   1_655  S
O115        C128   1.262       .  A
O115       Co123   1.943       .  S
O116        C129   1.289       .  A
O116       Co124   2.029       .  S
O117        C130   1.264       .  A
O117       Co125   2.049       .  S
O118        C130   1.242       .  A
O118       Co123   1.964   1_655  S
O119        C129   1.268       .  A
O119       Co122   1.971       .  S
O120        C127   1.266       .  A
O120       Co125   2.048       .  S
O121        C128   1.293       .  A
O121       Co124   2.057       .  S
Co122       O126   1.927       .  S
Co123       O126   1.952       .  S
Co124       O126   2.121       .  S
Co125       O126   2.248   1_655  S
C127       C1377   1.503       .  S
C128        C985   1.499       .  S
C129       C1461   1.479       .  S
C130        C786   1.502       .  S
O131        C139   1.276       .  A
O131       Co151   1.927       .  S
O132        C140   1.251       .  A
O132       Co152   1.934   1_655  S
O133        C141   1.281       .  A
O133       Co153   1.896       .  S
O134        C142   1.270       .  A
O134       Co154   1.954       .  S
O135        C141   1.291       .  A
O135       Co152   2.034       .  S
O136        C142   1.261       .  A
O136       Co151   1.971   1_655  S
O137        C140   1.268       .  A
O137       Co154   1.976       .  S
O138        C139   1.280       .  A
O138       Co153   2.077       .  S
C139        C618   1.466       .  S
C140        C635   1.421       .  S
C141        C649   1.446       .  S
C142        C607   1.475       .  S
O143        C156   1.269       .  A
O143       Co151   1.973   1_655  S
O144        C157   1.269       .  A
O144       Co152   1.834       .  S
O145        C158   1.283       .  A
O145       Co153   2.030       .  S
O146        C159   1.289       .  A
O146       Co154   2.047       .  S
O147        C159   1.261       .  A
O147       Co152   1.994   1_655  S
O148        C158   1.263       .  A
O148       Co151   1.968       .  S
O149        C156   1.303       .  A
O149       Co154   2.067       .  S
O150        C157   1.323       .  A
O150       Co153   2.127       .  S
Co151       O155   1.888       .  S
Co152       O155   1.941       .  S
Co153       O155   2.031       .  S
Co154       O155   2.042   1_655  S
C156       C1363   1.519       .  S
C157        C887   1.486       .  S
C158       C1545   1.503       .  S
C159        C817   1.543       .  S
O160        C168   1.260       .  A
O160       Co180   1.962       .  S
O161        C169   1.258       .  A
O161       Co181   1.923   1_556  S
O162        C170   1.292       .  A
O162       Co182   1.997       .  S
O163        C171   1.292       .  A
O163       Co183   2.012       .  S
O164        C170   1.282       .  A
O164       Co181   2.081       .  S
O165        C171   1.286       .  A
O165       Co180   2.013   1_556  S
O166        C169   1.287       .  A
O166       Co183   2.047       .  S
O167        C168   1.297       .  A
O167       Co182   2.056       .  S
C168       C1139   1.521       .  S
C169        C971   1.506       .  S
C170        C898   1.531       .  S
C171       C1083   1.505       .  S
O172        C185   1.259       .  A
O172       Co180   1.969   1_556  S
O173        C186   1.266       .  A
O173       Co181   1.909       .  S
O174        C187   1.278       .  A
O174       Co182   2.000       .  S
O175        C188   1.278       .  A
O175       Co183   1.996       .  S
O176        C188   1.275       .  A
O176       Co181   1.988   1_556  S
O177        C187   1.266       .  A
O177       Co180   1.968       .  S
O178        C185   1.261       .  A
O178       Co183   1.968       .  S
O179        C186   1.279       .  A
O179       Co182   2.071       .  S
Co180       O184   1.983       .  S
Co181       O184   1.953       .  S
Co182       O184   2.036       .  S
Co183       O184   2.050   1_556  S
C185        C705   1.452       .  S
C186        C646   1.444       .  S
C187        C576   1.477       .  S
C188        C590   1.489       .  S
O189        C197   1.279       .  A
O189       Co209   1.985   1_455  S
O190        C198   1.299       .  A
O190       Co210   2.138       .  S
O191        C199   1.292       .  A
O191       Co211   2.046       .  S
O192        C200   1.288       .  A
O192       Co212   2.053       .  S
O193        C199   1.271       .  A
O193       Co210   1.977   1_455  S
O194        C200   1.260       .  A
O194       Co209   1.982       .  S
O195        C198   1.290       .  A
O195       Co212   1.946       .  S
O196        C197   1.294       .  A
O196       Co211   2.015       .  S
C197       C1475   1.501       .  S
C198        C842   1.508       .  S
C199        C915   1.504       .  S
C200       C1402   1.521       .  S
O201        C214   1.257       .  A
O201       Co209   1.937       .  S
O202        C215   1.275       .  A
O202       Co210   1.968   1_455  S
O203        C216   1.267       .  A
O203       Co211   2.009       .  S
O204        C217   1.276       .  A
O204       Co212   2.086       .  S
O205        C217   1.276       .  A
O205       Co210   1.924       .  S
O206        C216   1.249       .  A
O206       Co209   1.941   1_455  S
O207        C214   1.290       .  A
O207       Co212   2.041       .  S
O208        C215   1.274       .  A
O208       Co211   1.987       .  S
Co209       O213   1.976   1_655  S
Co210       O213   1.955   1_655  S
Co211       O213   2.049       .  S
Co212       O213   1.982   1_655  S
C214        C551   1.461       .  S
C215        C520   1.456       .  S
C216        C562   1.449       .  S
C217        C534   1.479       .  S
O218        C226   1.261       .  A
O218       Co238   1.964       .  S
O219        C227   1.279       .  A
O219       Co239   1.900       .  S
O220        C228   1.288       .  A
O220       Co240   2.018       .  S
O221        C229   1.287       .  A
O221       Co241   2.043       .  S
O222        C228   1.255       .  A
O222       Co239   1.974   1_565  S
O223        C229   1.265       .  A
O223       Co238   1.988   1_545  S
O224        C227   1.313       .  A
O224       Co241   2.108       .  S
O225        C226   1.293       .  A
O225       Co240   2.054       .  S
C226       C1556   1.509       .  S
C227       C1265   1.485       .  S
C228       C1125   1.531       .  S
C229       C1486   1.521       .  S
O230        C243   1.264   1_565  A
O230       Co238   1.890       .  S
O231        C244   1.265       .  A
O231       Co239   2.000   1_565  S
O232        C245   1.274       .  A
O232       Co240   1.990       .  S
O233        C246   1.285       .  A
O233       Co241   1.907       .  S
O234        C246   1.286       .  A
O234       Co239   2.035       .  S
O235        C245   1.258       .  A
O235       Co238   1.958       .  S
O236        C243   1.288       .  A
O236       Co241   2.088       .  S
O237        C244   1.253       .  A
O237       Co240   1.958       .  S
Co238       O242   1.866       .  S
Co239       O242   1.970   1_545  S
Co240       O242   2.077       .  S
Co241       O242   2.050   1_545  S
C243        C565   1.443       .  S
C244        C579   1.466       .  S
C245        C621   1.471       .  S
C246        C509   1.480       .  S
O247        C255   1.277       .  A
O247       Co267   1.947       .  S
O248        C256   1.257       .  A
O248       Co268   1.950       .  S
O249        C257   1.282       .  A
O249       Co269   2.033       .  S
O250        C258   1.267       .  A
O250       Co270   1.955       .  S
O251        C257   1.257       .  A
O251       Co268   1.943   1_554  S
O252        C258   1.273       .  A
O252       Co267   1.952   1_556  S
O253        C256   1.270       .  A
O253       Co270   2.000       .  S
O254        C255   1.270       .  A
O254       Co269   2.063       .  S
C255        C506   1.492       .  S
C256        C677   1.456       .  S
C257        C523   1.458       .  S
C258        C719   1.436       .  S
O259        C272   1.273       .  A
O259       Co267   1.970   1_556  S
O260        C273   1.269       .  A
O260       Co268   1.973   1_554  S
O261        C274   1.289       .  A
O261       Co269   1.966       .  S
O262        C275   1.290       .  A
O262       Co270   2.009       .  S
O263        C275   1.274       .  A
O263       Co268   1.979       .  S
O264        C274   1.285       .  A
O264       Co267   2.095       .  S
O265        C272   1.292       .  A
O265       Co270   2.032       .  S
O266        C273   1.284       .  A
O266       Co269   2.009       .  S
Co267       O271   1.960   1_554  S
Co268       O271   1.974       .  S
Co269       O271   2.006   1_554  S
Co270       O271   2.031       .  S
C272       C1209   1.490       .  S
C273        C929   1.498       .  S
C274       C1279   1.509       .  S
C275        C999   1.481       .  S
O276        C284   1.269       .  A
O276       Co296   1.975   1_545  S
O277        C285   1.260       .  A
O277       Co297   1.977       .  S
O278        C286   1.291       .  A
O278       Co298   2.006       .  S
O279        C287   1.286       .  A
O279       Co299   1.926       .  S
O280        C286   1.277       .  A
O280       Co297   1.977   1_545  S
O281        C287   1.298       .  A
O281       Co296   2.142       .  S
O282        C285   1.285       .  A
O282       Co299   2.046       .  S
O283        C284   1.288       .  A
O283       Co298   2.034       .  S
C284       C1416   1.489       .  S
C285       C1097   1.501       .  S
C286       C1237   1.500       .  S
C287       C1349   1.498       .  S
O288        C301   1.272       .  A
O288       Co296   1.925       .  S
O289        C302   1.262       .  A
O289       Co297   1.959   1_545  S
O290        C303   1.274       .  A
O290       Co298   1.988       .  S
O291        C304   1.285       .  A
O291       Co299   2.030       .  S
O292        C304   1.266       .  A
O292       Co297   1.953       .  S
O293        C303   1.271       .  A
O293       Co296   1.959   1_545  S
O294        C301   1.283       .  A
O294       Co299   2.095       .  S
O295        C302   1.263       .  A
O295       Co298   1.976       .  S
Co296       O300   1.958   1_565  S
Co297       O300   1.988   1_565  S
Co298       O300   2.030       .  S
Co299       O300   1.965   1_565  S
C301        C604   1.469       .  S
C302        C478   1.459       .  S
C303        C548   1.460       .  S
C304        C492   1.467       .  S
O305        C313   1.298       .  A
O305       Co325   2.140   1_554  S
O306        C314   1.259       .  A
O306       Co326   1.961       .  S
O307        C315   1.280       .  A
O307       Co327   2.092       .  S
O308        C316   1.281       .  A
O308       Co328   2.016       .  S
O309        C315   1.245       .  A
O309       Co326   1.949   1_554  S
O310        C316   1.271       .  A
O310       Co325   1.984       .  S
O311        C314   1.272       .  A
O311       Co328   2.005       .  S
O312        C313   1.278       .  A
O312       Co327   1.947       .  S
C313       C1248   1.525       .  S
C314        C800   1.468       .  S
C315        C856   1.515       .  S
C316       C1181   1.495       .  S
O317        C330   1.272       .  A
O317       Co325   1.992       .  S
O318        C331   1.246       .  A
O318       Co326   1.937   1_554  S
O319        C332   1.318       .  A
O319       Co327   2.160       .  S
O320        C333   1.281       .  A
O320       Co328   2.049       .  S
O321        C333   1.245       .  A
O321       Co326   1.903       .  S
O322        C332   1.267       .  A
O322       Co325   1.866   1_554  S
O323        C330   1.266       .  A
O323       Co328   1.979       .  S
O324        C331   1.293       .  A
O324       Co327   2.045       .  S
Co325       O329   1.984       .  S
Co326       O329   2.012       .  S
Co327       O329   2.027   1_554  S
Co328       O329   2.070       .  S
C330        C467   1.478       .  S
C331        C537   1.457       .  S
C332        C481   1.440       .  S
C333        C660   1.456       .  S
O334        C342   1.248       .  A
O334       Co354   1.958       .  S
O335        C343   1.244       .  A
O335       Co355   1.923       .  S
O336        C344   1.286       .  A
O336       Co356   1.920       .  S
O337        C345   1.298       .  A
O337       Co357   2.013       .  S
O338        C344   1.303       .  A
O338       Co355   2.149   1_455  S
O339        C345   1.288       .  A
O339       Co354   2.003   1_655  S
O340        C343   1.292       .  A
O340       Co357   2.080       .  S
O341        C342   1.290       .  A
O341       Co356   2.073       .  S
C342       C1514   1.515       .  S
C343        C761   1.506       .  S
C344        C957   1.499       .  S
C345       C1321   1.501       .  S
O346        C359   1.257       .  A
O346       Co354   1.945   1_655  S
O347        C360   1.262       .  A
O347       Co355   1.912   1_455  S
O348        C361   1.278       .  A
O348       Co356   1.983       .  S
O349        C362   1.281       .  A
O349       Co357   2.004       .  S
O350        C362   1.282       .  A
O350       Co355   1.974       .  S
O351        C361   1.271       .  A
O351       Co354   1.968       .  S
O352        C359   1.260       .  A
O352       Co357   1.966       .  S
O353        C360   1.289       .  A
O353       Co356   2.143       .  S
Co354       O358   1.974   1_455  S
Co355       O358   1.914       .  S
Co356       O358   1.961   1_455  S
Co357       O358   2.023       .  S
C359        C453   1.447       .  S
C360        C593   1.472       .  S
C361        C747   1.455       .  S
C362        C439   1.466       .  S
O363        C371   1.254       .  A
O363       Co383   1.883       .  S
O364        C372   1.258       .  A
O364       Co384   1.952   1_565  S
O365        C373   1.272       .  A
O365       Co385   1.972       .  S
O366        C374   1.270       .  A
O366       Co386   1.959       .  S
O367        C373   1.267       .  A
O367       Co384   1.986       .  S
O368        C374   1.265       .  A
O368       Co383   1.961   1_565  S
O369        C372   1.260       .  A
O369       Co386   1.983       .  S
O370        C371   1.303       .  A
O370       Co385   2.173       .  S
C371        C691   1.485       .  S
C372        C422   1.454       .  S
C373        C464   1.474       .  S
C374        C450   1.454       .  S
O375        C388   1.253       .  A
O375       Co383   1.926   1_565  S
O376        C389   1.260       .  A
O376       Co384   1.965       .  S
O377        C390   1.281       .  A
O377       Co385   1.930       .  S
O378        C391   1.293       .  A
O378       Co386   2.011       .  S
O379        C391   1.284       .  A
O379       Co384   2.018   1_565  S
O380        C390   1.295       .  A
O380       Co383   2.104       .  S
O381        C388   1.289       .  A
O381       Co386   2.051       .  S
O382        C389   1.296       .  A
O382       Co385   2.070       .  S
Co383       O387   1.959       .  S
Co384       O387   1.999       .  S
Co385       O387   1.996       .  S
Co386       O387   2.077   1_565  S
C388       C1335   1.507       .  S
C389       C1164   1.522       .  S
C390       C1388   1.496       .  S
C391       C1041   1.509       .  S
O392        C400   1.267       .  A
O392       Co412   1.953       .  S
O393        C401   1.252       .  A
O393       Co413   1.934       .  S
O394        C402   1.272       .  A
O394       Co414   2.006       .  S
O395        C403   1.271       .  A
O395       Co415   1.996       .  S
O396        C402   1.252       .  A
O396       Co413   1.920   1_554  S
O397        C403   1.265       .  A
O397       Co412   1.951   1_556  S
O398        C401   1.272       .  A
O398       Co415   2.019       .  S
O399        C400   1.279       .  A
O399       Co414   2.007       .  S
C400        C495   1.462       .  S
C401        C436   1.456       .  S
C402        C632   1.430       .  S
C403        C425   1.456       .  S
O404        C417   1.279       .  A
O404       Co412   2.007   1_556  S
O405        C418   1.255       .  A
O405       Co413   1.979   1_554  S
O406        C419   1.278       .  A
O406       Co414   2.043       .  S
O407        C420   1.335       .  A
O407       Co415   2.158       .  S
O408        C420   1.277       .  A
O408       Co413   1.859       .  S
O409        C419   1.255       .  A
O409       Co412   1.968       .  S
O410        C417   1.306       .  A
O410       Co415   2.049       .  S
O411        C418   1.274       .  A
O411       Co414   2.011       .  S
Co412       O416   2.007       .  S
Co413       O416   1.901   1_556  S
Co414       O416   2.074       .  S
Co415       O416   2.034   1_556  S
C417       C1055   1.519       .  S
C418        C831   1.518       .  S
C419       C1111   1.498       .  S
C420        C775   1.497       .  S
C421        C422   1.401       .  A
C421        C426   1.389       .  A
C421        H428   1.084       .  S
C422        C423   1.414       .  A
C423        C424   1.382       .  A
C423        N430   1.434       .  S
C424        C425   1.402       .  A
C424        H429   1.084       .  S
C425        C426   1.406       .  A
C426        N427   1.433       .  S
N427        H431   1.046       .  S
N427        H432   1.045       .  S
N430        H433   1.044       .  S
N430        H434   1.044       .  S
C435        C436   1.393       .  A
C435        C440   1.385       .  A
C435        H442   1.083       .  S
C436        C437   1.409       .  A
C437        C438   1.397       .  A
C437        N444   1.432       .  S
C438        C439   1.400       .  A
C438        H443   1.084       .  S
C439        C440   1.415       .  A
C440        N441   1.431       .  S
N441        H445   1.045       .  S
N441        H446   1.046       .  S
N444        H447   1.045       .  S
N444        H448   1.046       .  S
C449        C450   1.402       .  A
C449        C454   1.367       .  A
C449        H456   1.084       .  S
C450        C451   1.411       .  A
C451        C452   1.392       .  A
C451        N458   1.433       .  S
C452        C453   1.406       .  A
C452        H457   1.084       .  S
C453        C454   1.407       .  A
C454        N455   1.438       .  S
N455        H459   1.046       .  S
N455        H460   1.045       .  S
N458        H461   1.046       .  S
N458        H462   1.045       .  S
C463        C464   1.394       .  A
C463        C468   1.382       .  A
C463        H470   1.085       .  S
C464        C465   1.411       .  A
C465        C466   1.412       .  A
C465        N472   1.431       .  S
C466        C467   1.408       .  A
C466        H471   1.084       .  S
C467        C468   1.419       .  A
C468        N469   1.435       .  S
N469        H473   1.046       .  S
N469        H474   1.046       .  S
N472        H475   1.046       .  S
N472        H476   1.045       .  S
C477        C478   1.407       .  A
C477        C482   1.399       .  A
C477        H484   1.084       .  S
C478        C479   1.414       .  A
C479        C480   1.378       .  A
C479        N486   1.435       .  S
C480        C481   1.391       .  A
C480        H485   1.083       .  S
C481        C482   1.401       .  A
C482        N483   1.432       .  S
N483        H487   1.046       .  S
N483        H488   1.046       .  S
N486        H489   1.046       .  S
N486        H490   1.045       .  S
C491        C492   1.402       .  A
C491        C496   1.395       .  A
C491        H498   1.082       .  S
C492        C493   1.414       .  A
C493        C494   1.391       .  A
C493        N500   1.434       .  S
C494        C495   1.400       .  A
C494        H499   1.084       .  S
C495        C496   1.405       .  A
C496        N497   1.433       .  S
N497        H501   1.046       .  S
N497        H502   1.046       .  S
N500        H503   1.046       .  S
N500        H504   1.045       .  S
C505        C506   1.402       .  A
C505        C510   1.415       .  A
C505        H512   1.083       .  S
C506        C507   1.431       .  A
C507        C508   1.380       .  A
C507        N514   1.431       .  S
C508        C509   1.385       .  A
C508        H513   1.085       .  S
C509        C510   1.422       .  A
C510        N511   1.432       .  S
N511        H515   1.046       .  S
N511        H516   1.045       .  S
N514        H517   1.034       .  S
N514        H518   1.043       .  S
C519        C520   1.397       .  A
C519        C524   1.397       .  A
C519        H526   1.084       .  S
C520        C521   1.410       .  A
C521        C522   1.387       .  A
C521        N528   1.432       .  S
C522        C523   1.392       .  A
C522        H527   1.076       .  S
C523        C524   1.414       .  A
C524        N525   1.433       .  S
N525        H529   1.046       .  S
N525        H530   1.045       .  S
N528        H531   1.046       .  S
N528        H532   1.046       .  S
C533        C534   1.398       .  A
C533        C538   1.406       .  A
C533        H540   1.083       .  S
C534        C535   1.424       .  A
C535        C536   1.391       .  A
C535        N542   1.433       .  S
C536        C537   1.387       .  A
C536        H541   1.085       .  S
C537        C538   1.411       .  A
C538        N539   1.431       .  S
N539        H543   1.045       .  S
N539        H544   1.044       .  S
N542        H545   1.044       .  S
N542        H546   1.046       .  S
C547        C548   1.397       .  A
C547        C552   1.390       .  A
C547        H554   1.084       .  S
C548        C549   1.409       .  A
C549        C550   1.385       .  A
C549        N556   1.433       .  S
C550        C551   1.395       .  A
C550        H555   1.080       .  S
C551        C552   1.421       .  A
C552        N553   1.434       .  S
N553        H557   1.044       .  S
N553        H558   1.046       .  S
N556        H559   1.045       .  S
N556        H560   1.046       .  S
C561        C562   1.397       .  A
C561        C566   1.391       .  A
C561        H568   1.083       .  S
C562        C563   1.406       .  A
C563        C564   1.398       .  A
C563        N570   1.432       .  S
C564        C565   1.400       .  A
C564        H569   1.084       .  S
C565        C566   1.403       .  A
C566        N567   1.435       .  S
N567        H571   1.045       .  S
N567        H572   1.045       .  S
N570        H573   1.045       .  S
N570        H574   1.046       .  S
C575        C576   1.403       .  A
C575        C580   1.385       .  A
C575        H582   1.083       .  S
C576        C577   1.419       .  A
C577        C578   1.404       .  A
C577        N584   1.432       .  S
C578        C579   1.403       .  A
C578        H583   1.084       .  S
C579        C580   1.410       .  A
C580        N581   1.436       .  S
N581        H585   1.044       .  S
N581        H586   1.046       .  S
N584        H587   1.045       .  S
N584        H588   1.044       .  S
C589        C590   1.406       .  A
C589        C594   1.377       .  A
C589        H596   1.083       .  S
C590        C591   1.419       .  A
C591        C592   1.414       .  A
C591        N598   1.431       .  S
C592        C593   1.409       .  A
C592        H597   1.083       .  S
C593        C594   1.402       .  A
C594        N595   1.432       .  S
N595        H599   1.046       .  S
N595        H600   1.045       .  S
N598        H601   1.046       .  S
N598        H602   1.045       .  S
C603        C604   1.408       .  A
C603        C608   1.419       .  A
C603        H610   1.083       .  S
C604        C605   1.407       .  A
C605        C606   1.367       .  A
C605        N612   1.433       .  S
C606        C607   1.397       .  A
C606        H611   1.084       .  S
C607        C608   1.416       .  A
C608        N609   1.430       .  S
N609        H613   1.045       .  S
N609        H614   1.045       .  S
N612        H615   1.046       .  S
N612        H616   1.045       .  S
C617        C618   1.402       .  A
C617        C622   1.408       .  A
C617        H624   1.082       .  S
C618        C619   1.416       .  A
C619        C620   1.387       .  A
C619        N626   1.439       .  S
C620        C621   1.397       .  A
C620        H625   1.084       .  S
C621        C622   1.416       .  A
C622        N623   1.437       .  S
N623        H627   1.046       .  S
N623        H628   1.045       .  S
N626        H629   1.045       .  S
N626        H630   1.046       .  S
C631        C632   1.402       .  A
C631        C636   1.394       .  A
C631        H638   1.084       .  S
C632        C633   1.396       .  A
C633        C634   1.372       .  A
C633        N640   1.425       .  S
C634        C635   1.388       .  A
C634        H639   1.082       .  S
C635        C636   1.399       .  A
C636        N637   1.432       .  S
N637        H641   1.046       .  S
N637        H642   1.045       .  S
N640        H643   1.046       .  S
N640        H644   1.044       .  S
C645        C646   1.403       .  A
C645        C650   1.404       .  A
C645        H652   1.084       .  S
C646        C647   1.400       .  A
C647        C648   1.382       .  A
C647        N654   1.423       .  S
C648        C649   1.392       .  A
C648        H653   1.085       .  S
C649        C650   1.408       .  A
C650        N651   1.437       .  S
N651        H655   1.045       .  S
N651        H656   1.046       .  S
N654        H657   1.043       .  S
N654        H658   1.045       .  S
C659        C660   1.386       .  A
C659        C664   1.386       .  A
C659        H666   1.069       .  S
C660        C661   1.421       .  A
C661        C662   1.387       .  A
C661        N668   1.434       .  S
C662        C663   1.396       .  A
C662        H667   1.084       .  S
C663        C664   1.409       .  A
C664        N665   1.434       .  S
N665        H669   1.046       .  S
N665        H670   1.045       .  S
N668        H671   1.041       .  S
N668        H672   1.045       .  S
C673        C674   1.401       .  A
C673        C678   1.385       .  A
C673        H680   1.079       .  S
C674        C675   1.406       .  A
C675        C676   1.399       .  A
C675        N682   1.432       .  S
C676        C677   1.404       .  A
C676        H681   1.084       .  S
C677        C678   1.401       .  A
C678        N679   1.434       .  S
N679        H683   1.046       .  S
N679        H684   1.046       .  S
N682        H685   1.046       .  S
N682        H686   1.045       .  S
C687        C688   1.407       .  A
C687        C692   1.400       .  A
C687        H694   1.084       .  S
C688        C689   1.410       .  A
C689        C690   1.409       .  A
C689        N696   1.435       .  S
C690        C691   1.409       .  A
C690        H695   1.083       .  S
C691        C692   1.405       .  A
C692        N693   1.433       .  S
N693        H697   1.046       .  S
N693        H698   1.046       .  S
N696        H699   1.046       .  S
N696        H700   1.046       .  S
C701        C702   1.396       .  A
C701        C706   1.381       .  A
C701        H708   1.081       .  S
C702        C703   1.414       .  A
C703        C704   1.399       .  A
C703        N710   1.432       .  S
C704        C705   1.398       .  A
C704        H709   1.084       .  S
C705        C706   1.404       .  A
C706        N707   1.432       .  S
N707        H711   1.046       .  S
N707        H712   1.042       .  S
N710        H713   1.046       .  S
N710        H714   1.045       .  S
C715        C716   1.391       .  A
C715        C720   1.361       .  A
C715        H722   1.085       .  S
C716        C717   1.412       .  A
C717        C718   1.388       .  A
C717        N724   1.432       .  S
C718        C719   1.398       .  A
C718        H723   1.084       .  S
C719        C720   1.417       .  A
C720        N721   1.434       .  S
N721        H725   1.044       .  S
N721        H726   1.044       .  S
N724        H727   1.045       .  S
N724        H728   1.044       .  S
C729        C730   1.402       .  A
C729        C734   1.376       .  A
C729        H736   1.084       .  S
C730        C731   1.412       .  A
C731        C732   1.391       .  A
C731        N738   1.433       .  S
C732        C733   1.405       .  A
C732        H737   1.084       .  S
C733        C734   1.408       .  A
C734        N735   1.436       .  S
N735        H739   1.046       .  S
N735        H740   1.045       .  S
N738        H741   1.045       .  S
N738        H742   1.045       .  S
C743        C744   1.397       .  A
C743        C748   1.377       .  A
C743        H750   1.084       .  S
C744        C745   1.410       .  A
C745        C746   1.395       .  A
C745        N752   1.433       .  S
C746        C747   1.402       .  A
C746        H751   1.084       .  S
C747        C748   1.410       .  A
C748        N749   1.435       .  S
N749        H753   1.044       .  S
N749        H754   1.046       .  S
N752        H755   1.046       .  S
N752        H756   1.046       .  S
C757        C758   1.373       .  A
C757        C762   1.381       .  A
C757        H764   1.080       .  S
C758        C759   1.416       .  A
C759        C760   1.422       .  A
C759        N766   1.431       .  S
C760        C761   1.407       .  A
C760        H765   1.083       .  S
C761        C762   1.440       .  A
C762        N763   1.435       .  S
N763        H767   1.044       .  S
N763        H768   1.043       .  S
N766        H769   1.045       .  S
N766        H770   1.045       .  S
C771        C772   1.394       .  A
C771        C776   1.399       .  A
C771        H778   1.083       .  S
C772        C773   1.409       .  A
C773        C774   1.410       .  A
C773        N780   1.430       .  S
C774        C775   1.401       .  A
C774        H779   1.083       .  S
C775        C776   1.431       .  A
C776        N777   1.436       .  S
N777        H781   1.044       .  S
N777        H782   1.042       .  S
N780        H783   1.045       .  S
N780        H784   1.045       .  S
C785        C786   1.410       .  A
C785        C790   1.405       .  A
C785        H792   1.069       .  S
C786        C787   1.409       .  A
C787        C788   1.413       .  A
C787        N794   1.431       .  S
C788        C789   1.419       .  A
C788        H793   1.083       .  S
C789        C790   1.408       .  A
C790        N791   1.431       .  S
N791        H795   1.044       .  S
N791        H796   1.045       .  S
N794        H797   1.045       .  S
N794        H798   1.045       .  S
C799        C800   1.407       .  A
C799        C804   1.419       .  A
C799        H806   1.084       .  S
C800        C801   1.397       .  A
C801        C802   1.397       .  A
C801        N808   1.433       .  S
C802        C803   1.414       .  A
C802        H807   1.066       .  S
C803        C804   1.424       .  A
C804        N805   1.428       .  S
N805        H809   1.045       .  S
N805        H810   1.046       .  S
N808        H811   1.045       .  S
N808        H812   1.045       .  S
C813        C814   1.422       .  A
C813        C818   1.433       .  A
C813        H820   1.083       .  S
C814        C815   1.412       .  A
C815        C816   1.408       .  A
C815        N822   1.437       .  S
C816        C817   1.424       .  A
C816        H821   1.080       .  S
C817        C818   1.420       .  A
C818        N819   1.430       .  S
N819        H823   1.045       .  S
N819        H824   1.046       .  S
N822        H825   1.042       .  S
N822        H826   1.045       .  S
C827        C828   1.414       .  A
C827        C832   1.425       .  A
C827        H834   1.083       .  S
C828        C829   1.401       .  A
C829        C830   1.406       .  A
C829        N836   1.434       .  S
C830        C831   1.422       .  A
C830        H835   1.079       .  S
C831        C832   1.413       .  A
C832        N833   1.430       .  S
N833        H837   1.045       .  S
N833        H838   1.046       .  S
N836        H839   1.044       .  S
N836        H840   1.045       .  S
C841        C842   1.410       .  A
C841        C846   1.426       .  A
C841        H848   1.083       .  S
C842        C843   1.422       .  A
C843        C844   1.385       .  A
C843        N850   1.419       .  S
C844        C845   1.376       .  A
C844        H849   1.079       .  S
C845        C846   1.417       .  A
C846        N847   1.430       .  S
N847        H851   1.045       .  S
N847        H852   1.046       .  S
N850        H853   1.044       .  S
N850        H854   1.046       .  S
C855        C856   1.410       .  A
C855        C860   1.426       .  A
C855        H862   1.083       .  S
C856        C857   1.421       .  A
C857        C858   1.405       .  A
C857        N864   1.432       .  S
C858        C859   1.400       .  A
C858        H863   1.079       .  S
C859        C860   1.424       .  A
C860        N861   1.431       .  S
N861        H865   1.046       .  S
N861        H866   1.046       .  S
N864        H867   1.046       .  S
N864        H868   1.046   1_554  S
C869        C870   1.405       .  A
C869        C874   1.408   1_554  A
C869        H876   1.068       .  S
C870        C871   1.424       .  A
C871        C872   1.438   1_554  A
C871        N878   1.434       .  S
C872        C873   1.421       .  A
C872        H877   1.082       .  S
C873        C874   1.410       .  A
C874        N875   1.430       .  S
N875        H879   1.046       .  S
N875        H880   1.046       .  S
N878        H881   1.045       .  S
N878        H882   1.045       .  S
C883        C884   1.384       .  A
C883        C888   1.388       .  A
C883        H890   1.084       .  S
C884        C885   1.410       .  A
C885        C886   1.409       .  A
C885        N892   1.432       .  S
C886        C887   1.403       .  A
C886        H891   1.083       .  S
C887        C888   1.431       .  A
C888        N889   1.435       .  S
N889        H893   1.044       .  S
N889        H894   1.046       .  S
N892        H895   1.045       .  S
N892        H896   1.045       .  S
C897        C898   1.414       .  A
C897        C902   1.433       .  A
C897        H904   1.083       .  S
C898        C899   1.427       .  A
C899        C900   1.394       .  A
C899        N906   1.423       .  S
C900        C901   1.384       .  A
C900        H905   1.076       .  S
C901        C902   1.422       .  A
C902        N903   1.429       .  S
N903        H907   1.045       .  S
N903        H908   1.045       .  S
N906        H909   1.046       .  S
N906        H910   1.046       .  S
C911        C912   1.388       .  A
C911        C916   1.392       .  A
C911        H918   1.081       .  S
C912        C913   1.420       .  A
C913        C914   1.421       .  A
C913        N920   1.431       .  S
C914        C915   1.410       .  A
C914        H919   1.083       .  S
C915        C916   1.416       .  A
C916        N917   1.424       .  S
N917        H921   1.046       .  S
N917        H922   1.043   1_455  S
N920        H923   1.046       .  S
N920        H924   1.045       .  S
C925        C926   1.392       .  A
C925        C930   1.392       .  A
C925        H932   1.078       .  S
C926        C927   1.428       .  A
C927        C928   1.414       .  A
C927        N934   1.435       .  S
C928        C929   1.403       .  A
C928        H933   1.083       .  S
C929        C930   1.426       .  A
C930        N931   1.436       .  S
N931        H935   1.046       .  S
N931        H936   1.046       .  S
N934        H937   1.045       .  S
N934        H938   1.041       .  S
C939        C940   1.401       .  A
C939        C944   1.408   1_455  A
C939        H946   1.077       .  S
C940        C941   1.423       .  A
C941        C942   1.443   1_455  A
C941        N948   1.428       .  S
C942        C943   1.420       .  A
C942        H947   1.083       .  S
C943        C944   1.422       .  A
C944        N945   1.422       .  S
N945        H949   1.044       .  S
N945        H950   1.043       .  S
N948        H951   1.045       .  S
N948        H952   1.045       .  S
C953        C954   1.412       .  A
C953        C958   1.415       .  A
C953        H960   1.083       .  S
C954        C955   1.400       .  A
C955        C956   1.391       .  A
C955        N962   1.432       .  S
C956        C957   1.406       .  A
C956        H961   1.072       .  S
C957        C958   1.416       .  A
C958        N959   1.431       .  S
N959        H963   1.044       .  S
N959        H964   1.046       .  S
N962        H965   1.044       .  S
N962        H966   1.042       .  S
C967        C968   1.424       .  A
C967        C972   1.423       .  A
C967        H974   1.083       .  S
C968        C969   1.396       .  A
C969        C970   1.388       .  A
C969        N976   1.427       .  S
C970        C971   1.414       .  A
C970        H975   1.078       .  S
C971        C972   1.411       .  A
C972        N973   1.430       .  S
N973        H977   1.046       .  S
N973        H978   1.045       .  S
N976        H979   1.046       .  S
N976        H980   1.046       .  S
C981        C982   1.417       .  A
C981        C986   1.421       .  A
C981        H988   1.083       .  S
C982        C983   1.406       .  A
C983        C984   1.392       .  A
C983        N990   1.437       .  S
C984        C985   1.416       .  A
C984        H989   1.085       .  S
C985        C986   1.407       .  A
C986        N987   1.430       .  S
N987        H991   1.046       .  S
N987        H992   1.045       .  S
N990        H993   1.042       .  S
N990        H994   1.045       .  S
C995        C996   1.388       .  A
C995       C1000   1.390       .  A
C995       H1002   1.085       .  S
C996        C997   1.411       .  A
C997        C998   1.413       .  A
C997       N1004   1.431       .  S
C998        C999   1.404       .  A
C998       H1003   1.083       .  S
C999       C1000   1.417       .  A
C1000      N1001   1.427       .  S
N1001      H1005   1.046       .  S
N1001      H1006   1.045   1_556  S
N1004      H1007   1.046       .  S
N1004      H1008   1.045       .  S
C1009      C1010   1.404       .  A
C1009      C1014   1.415   1_556  A
C1009      H1016   1.079       .  S
C1010      C1011   1.418       .  A
C1011      C1012   1.433   1_556  A
C1011      N1018   1.430       .  S
C1012      C1013   1.419       .  A
C1012      H1017   1.078       .  S
C1013      C1014   1.420       .  A
C1014      N1015   1.430       .  S
N1015      H1019   1.045       .  S
N1015      H1020   1.046       .  S
N1018      H1021   1.045       .  S
N1018      H1022   1.045       .  S
C1023      C1024   1.413       .  A
C1023      C1028   1.431   1_455  A
C1023      H1030   1.083       .  S
C1024      C1025   1.414       .  A
C1025      C1026   1.410   1_455  A
C1025      N1032   1.430       .  S
C1026      C1027   1.403       .  A
C1026      H1031   1.077       .  S
C1027      C1028   1.419       .  A
C1028      N1029   1.429       .  S
N1029      H1033   1.045       .  S
N1029      H1034   1.045       .  S
N1032      H1035   1.045       .  S
N1032      H1036   1.046       .  S
C1037      C1038   1.413       .  A
C1037      C1042   1.420       .  A
C1037      H1044   1.083       .  S
C1038      C1039   1.403       .  A
C1039      C1040   1.401       .  A
C1039      N1046   1.432       .  S
C1040      C1041   1.407       .  A
C1040      H1045   1.069       .  S
C1041      C1042   1.419       .  A
C1042      N1043   1.431       .  S
N1043      H1047   1.045       .  S
N1043      H1048   1.045       .  S
N1046      H1049   1.045       .  S
N1046      H1050   1.045       .  S
C1051      C1052   1.392       .  A
C1051      C1056   1.408       .  A
C1051      H1058   1.082       .  S
C1052      C1053   1.428       .  A
C1053      C1054   1.416       .  A
C1053      N1060   1.432       .  S
C1054      C1055   1.401       .  A
C1054      H1059   1.083       .  S
C1055      C1056   1.437       .  A
C1056      N1057   1.434       .  S
N1057      H1061   1.044       .  S
N1057      H1062   1.045       .  S
N1060      H1063   1.046       .  S
N1060      H1064   1.041       .  S
C1065      C1066   1.407       .  A
C1065      C1070   1.424       .  A
C1065      H1072   1.083       .  S
C1066      C1067   1.431       .  A
C1067      C1068   1.399       .  A
C1067      N1074   1.432       .  S
C1068      C1069   1.387       .  A
C1068      H1073   1.081       .  S
C1069      C1070   1.418       .  A
C1070      N1071   1.431       .  S
N1071      H1075   1.045       .  S
N1071      H1076   1.045       .  S
N1074      H1077   1.044       .  S
N1074      H1078   1.046       .  S
C1079      C1080   1.410       .  A
C1079      C1084   1.414       .  A
C1079      H1086   1.084       .  S
C1080      C1081   1.397       .  A
C1081      C1082   1.398       .  A
C1081      N1088   1.433       .  S
C1082      C1083   1.412       .  A
C1082      H1087   1.073       .  S
C1083      C1084   1.418       .  A
C1084      N1085   1.431       .  S
N1085      H1089   1.045       .  S
N1085      H1090   1.045       .  S
N1088      H1091   1.046       .  S
N1088      H1092   1.045       .  S
C1093      C1094   1.416       .  A
C1093      C1098   1.424       .  A
C1093      H1100   1.083       .  S
C1094      C1095   1.396       .  A
C1095      C1096   1.396       .  A
C1095      N1102   1.431       .  S
C1096      C1097   1.412       .  A
C1096      H1101   1.077       .  S
C1097      C1098   1.409       .  A
C1098      N1099   1.430       .  S
N1099      H1103   1.046       .  S
N1099      H1104   1.045       .  S
N1102      H1105   1.041       .  S
N1102      H1106   1.046       .  S
C1107      C1108   1.384       .  A
C1107      C1112   1.391       .  A
C1107      H1114   1.079       .  S
C1108      C1109   1.417       .  A
C1109      C1110   1.421       .  A
C1109      N1116   1.436       .  S
C1110      C1111   1.407       .  A
C1110      H1115   1.083       .  S
C1111      C1112   1.424       .  A
C1112      N1113   1.431       .  S
N1113      H1117   1.046       .  S
N1113      H1118   1.042       .  S
N1116      H1119   1.046       .  S
N1116      H1120   1.045       .  S
C1121      C1122   1.380       .  A
C1121      C1126   1.392       .  A
C1121      H1128   1.080       .  S
C1122      C1123   1.420       .  A
C1123      C1124   1.429       .  A
C1123      N1130   1.431       .  S
C1124      C1125   1.410       .  A
C1124      H1129   1.083       .  S
C1125      C1126   1.446       .  A
C1126      N1127   1.434       .  S
N1127      H1131   1.046       .  S
N1127      H1132   1.046       .  S
N1130      H1133   1.045       .  S
N1130      H1134   1.045       .  S
C1135      C1136   1.383       .  A
C1135      C1140   1.397       .  A
C1135      H1142   1.082       .  S
C1136      C1137   1.418       .  A
C1137      C1138   1.425       .  A
C1137      N1144   1.431       .  S
C1138      C1139   1.408       .  A
C1138      H1143   1.083       .  S
C1139      C1140   1.443       .  A
C1140      N1141   1.436       .  S
N1141      H1145   1.044       .  S
N1141      H1146   1.045       .  S
N1144      H1147   1.045       .  S
N1144      H1148   1.045       .  S
C1149      C1150   1.408       .  A
C1149      C1154   1.415   1_554  A
C1149      H1156   1.084       .  S
C1150      C1151   1.420       .  A
C1151      C1152   1.429   1_554  A
C1151      N1158   1.427       .  S
C1152      C1153   1.414       .  A
C1152      H1157   1.082       .  S
C1153      C1154   1.417       .  A
C1154      N1155   1.430       .  S
N1155      H1159   1.045       .  S
N1155      H1160   1.045       .  S
N1158      H1161   1.046       .  S
N1158      H1162   1.045       .  S
C1163      C1164   1.411       .  A
C1163      C1168   1.425       .  A
C1163      H1170   1.083       .  S
C1164      C1165   1.437       .  A
C1165      C1166   1.395       .  A
C1165      N1172   1.438       .  S
C1166      C1167   1.384       .  A
C1166      H1171   1.078       .  S
C1167      C1168   1.424       .  A
C1168      N1169   1.432       .  S
N1169      H1173   1.046       .  S
N1169      H1174   1.044       .  S
N1172      H1175   1.044       .  S
N1172      H1176   1.046       .  S
C1177      C1178   1.410       .  A
C1177      C1182   1.410       .  A
C1177      H1184   1.084       .  S
C1178      C1179   1.402       .  A
C1179      C1180   1.394       .  A
C1179      N1186   1.432       .  S
C1180      C1181   1.408       .  A
C1180      H1185   1.075       .  S
C1181      C1182   1.415       .  A
C1182      N1183   1.431       .  S
N1183      H1187   1.045       .  S
N1183      H1188   1.045       .  S
N1186      H1189   1.045       .  S
N1186      H1190   1.046       .  S
C1191      C1192   1.415       .  A
C1191      C1196   1.402       .  A
C1191      H1198   1.083       .  S
C1192      C1193   1.413       .  A
C1193      C1194   1.412       .  A
C1193      N1200   1.431       .  S
C1194      C1195   1.413       .  A
C1194      H1199   1.083       .  S
C1195      C1196   1.405       .  A
C1196      N1197   1.431       .  S
N1197      H1201   1.046       .  S
N1197      H1202   1.045       .  S
N1200      H1203   1.045       .  S
N1200      H1204   1.045       .  S
C1205      C1206   1.392       .  A
C1205      C1210   1.389       .  A
C1205      H1212   1.082       .  S
C1206      C1207   1.417       .  A
C1207      C1208   1.424       .  A
C1207      N1214   1.430       .  S
C1208      C1209   1.410       .  A
C1208      H1213   1.083       .  S
C1209      C1210   1.408       .  A
C1210      N1211   1.423   1_556  S
N1211      H1215   1.046       .  S
N1211      H1216   1.044       .  S
N1214      H1217   1.045       .  S
N1214      H1218   1.046       .  S
C1219      C1220   1.409       .  A
C1219      C1224   1.423   1_565  A
C1219      H1226   1.083       .  S
C1220      C1221   1.413       .  A
C1221      C1222   1.408   1_565  A
C1221      N1228   1.430       .  S
C1222      C1223   1.405       .  A
C1222      H1227   1.083       .  S
C1223      C1224   1.428       .  A
C1224      N1225   1.428       .  S
N1225      H1229   1.039       .  S
N1225      H1230   1.043       .  S
N1228      H1231   1.045       .  S
N1228      H1232   1.044       .  S
C1233      C1234   1.410       .  A
C1233      C1238   1.410       .  A
C1233      H1240   1.084       .  S
C1234      C1235   1.395       .  A
C1235      C1236   1.392       .  A
C1235      N1242   1.438       .  S
C1236      C1237   1.419       .  A
C1236      H1241   1.078       .  S
C1237      C1238   1.416       .  A
C1238      N1239   1.431       .  S
N1239      H1243   1.045       .  S
N1239      H1244   1.045       .  S
N1242      H1245   1.044       .  S
N1242      H1246   1.045       .  S
C1247      C1248   1.410       .  A
C1247      C1252   1.428       .  A
C1247      H1254   1.083       .  S
C1248      C1249   1.425       .  A
C1249      C1250   1.411       .  A
C1249      N1256   1.428       .  S
C1250      C1251   1.396       .  A
C1250      H1255   1.079       .  S
C1251      C1252   1.420       .  A
C1252      N1253   1.436       .  S
N1253      H1257   1.045       .  S
N1253      H1258   1.046       .  S
N1256      H1259   1.042       .  S
N1256      H1260   1.045       .  S
C1261      C1262   1.415       .  A
C1261      C1266   1.408       .  A
C1261      H1268   1.071       .  S
C1262      C1263   1.432       .  A
C1263      C1264   1.410       .  A
C1263      N1270   1.433       .  S
C1264      C1265   1.397       .  A
C1264      H1269   1.084       .  S
C1265      C1266   1.409       .  A
C1266      N1267   1.435       .  S
N1267      H1271   1.046       .  S
N1267      H1272   1.043       .  S
N1270      H1273   1.043       .  S
N1270      H1274   1.043       .  S
C1275      C1276   1.419       .  A
C1275      C1280   1.421       .  A
C1275      H1282   1.083       .  S
C1276      C1277   1.406       .  A
C1277      C1278   1.398       .  A
C1277      N1284   1.433       .  S
C1278      C1279   1.413       .  A
C1278      H1283   1.065       .  S
C1279      C1280   1.413       .  A
C1280      N1281   1.430       .  S
N1281      H1285   1.045       .  S
N1281      H1286   1.046       .  S
N1284      H1287   1.046       .  S
N1284      H1288   1.041       .  S
C1289      C1290   1.412       .  A
C1289      C1294   1.422   1_565  A
C1289      H1296   1.083       .  S
C1290      C1291   1.415       .  A
C1291      C1292   1.426   1_565  A
C1291      N1298   1.430       .  S
C1292      C1293   1.420       .  A
C1292      H1297   1.078       .  S
C1293      C1294   1.418       .  A
C1294      N1295   1.429       .  S
N1295      H1299   1.045       .  S
N1295      H1300   1.044       .  S
N1298      H1301   1.045       .  S
N1298      H1302   1.045       .  S
C1303      C1304   1.403       .  A
C1303      C1308   1.413   1_556  A
C1303      H1310   1.083       .  S
C1304      C1305   1.420       .  A
C1305      C1306   1.435   1_556  A
C1305      N1312   1.430       .  S
C1306      C1307   1.416       .  A
C1306      H1311   1.083       .  S
C1307      C1308   1.416       .  A
C1308      N1309   1.428       .  S
N1309      H1313   1.045       .  S
N1309      H1314   1.044       .  S
N1312      H1315   1.045       .  S
N1312      H1316   1.045       .  S
C1317      C1318   1.411       .  A
C1317      C1322   1.417       .  A
C1317      H1324   1.083       .  S
C1318      C1319   1.408       .  A
C1319      C1320   1.395       .  A
C1319      N1326   1.433       .  S
C1320      C1321   1.408       .  A
C1320      H1325   1.079       .  S
C1321      C1322   1.419       .  A
C1322      N1323   1.431       .  S
N1323      H1327   1.045       .  S
N1323      H1328   1.045       .  S
N1326      H1329   1.045       .  S
N1326      H1330   1.044       .  S
C1331      C1332   1.432       .  A
C1331      C1336   1.421       .  A
C1331      H1338   1.082       .  S
C1332      C1333   1.411       .  A
C1333      C1334   1.401       .  A
C1333      N1340   1.425       .  S
C1334      C1335   1.413       .  A
C1334      H1339   1.078       .  S
C1335      C1336   1.406       .  A
C1336      N1337   1.430       .  S
N1337      H1341   1.046       .  S
N1337      H1342   1.045       .  S
N1340      H1343   1.046       .  S
N1340      H1344   1.046       .  S
C1345      C1346   1.387       .  A
C1345      C1350   1.394       .  A
C1345      H1352   1.081       .  S
C1346      C1347   1.414       .  A
C1347      C1348   1.417       .  A
C1347      N1354   1.431       .  S
C1348      C1349   1.405       .  A
C1348      H1353   1.083       .  S
C1349      C1350   1.422       .  A
C1350      N1351   1.429       .  S
N1351      H1355   1.044       .  S
N1351      H1356   1.046       .  S
N1354      H1357   1.045       .  S
N1354      H1358   1.046       .  S
C1359      C1360   1.389       .  A
C1359      C1364   1.395       .  A
C1359      H1366   1.082       .  S
C1360      C1361   1.420       .  A
C1361      C1362   1.418       .  A
C1361      N1368   1.431       .  S
C1362      C1363   1.409       .  A
C1362      H1367   1.083       .  S
C1363      C1364   1.442       .  A
C1364      N1365   1.435       .  S
N1365      H1369   1.046       .  S
N1365      H1370   1.044       .  S
N1368      H1371   1.046       .  S
N1368      H1372   1.045       .  S
C1373      C1374   1.416       .  A
C1373      C1378   1.423       .  A
C1373      H1380   1.083       .  S
C1374      C1375   1.403       .  A
C1375      C1376   1.395       .  A
C1375      N1382   1.437       .  S
C1376      C1377   1.411       .  A
C1376      H1381   1.075       .  S
C1377      C1378   1.407       .  A
C1378      N1379   1.430       .  S
N1379      H1383   1.045       .  S
N1379      H1384   1.046       .  S
N1382      H1385   1.045       .  S
N1382      H1386   1.045       .  S
C1387      C1388   1.400       .  A
C1387      C1392   1.416       .  A
C1387      H1394   1.084       .  S
C1388      C1389   1.406       .  A
C1389      C1390   1.410       .  A
C1389      N1396   1.435       .  S
C1390      C1391   1.412       .  A
C1390      H1395   1.072       .  S
C1391      C1392   1.434       .  A
C1392      N1393   1.433       .  S
N1393      H1397   1.044       .  S
N1393      H1398   1.041       .  S
N1396      H1399   1.045       .  S
N1396      H1400   1.046       .  S
C1401      C1402   1.407       .  A
C1401      C1406   1.420       .  A
C1401      H1408   1.083       .  S
C1402      C1403   1.435       .  A
C1403      C1404   1.403       .  A
C1403      N1410   1.435       .  S
C1404      C1405   1.391       .  A
C1404      H1409   1.081       .  S
C1405      C1406   1.425       .  A
C1406      N1407   1.432       .  S
N1407      H1411   1.046       .  S
N1407      H1412   1.044       .  S
N1410      H1413   1.046       .  S
N1410      H1414   1.044       .  S
C1415      C1416   1.406       .  A
C1415      C1420   1.400       .  A
C1415      H1422   1.073       .  S
C1416      C1417   1.411       .  A
C1417      C1418   1.411       .  A
C1417      N1424   1.431       .  S
C1418      C1419   1.411       .  A
C1418      H1423   1.083       .  S
C1419      C1420   1.402       .  A
C1420      N1421   1.433       .  S
N1421      H1425   1.044       .  S
N1421      H1426   1.045       .  S
N1424      H1427   1.045       .  S
N1424      H1428   1.046       .  S
C1429      C1430   1.411       .  A
C1429      C1434   1.417   1_545  A
C1429      H1436   1.083       .  S
C1430      C1431   1.433       .  A
C1431      C1432   1.425   1_545  A
C1431      N1438   1.435       .  S
C1432      C1433   1.412       .  A
C1432      H1437   1.080       .  S
C1433      C1434   1.418       .  A
C1434      N1435   1.431       .  S
N1435      H1439   1.046       .  S
N1435      H1440   1.044       .  S
N1438      H1441   1.039       .  S
N1438      H1442   1.045       .  S
C1443      C1444   1.418       .  A
C1443      C1448   1.418       .  A
C1443      H1450   1.083       .  S
C1444      C1445   1.406       .  A
C1445      C1446   1.409       .  A
C1445      N1452   1.432       .  S
C1446      C1447   1.419       .  A
C1446      H1451   1.084       .  S
C1447      C1448   1.405       .  A
C1448      N1449   1.430       .  S
N1449      H1453   1.046       .  S
N1449      H1454   1.045       .  S
N1452      H1455   1.046       .  S
N1452      H1456   1.046       .  S
C1457      C1458   1.408       .  A
C1457      C1462   1.402       .  A
C1457      H1464   1.075       .  S
C1458      C1459   1.431       .  A
C1459      C1460   1.420       .  A
C1459      N1466   1.435       .  S
C1460      C1461   1.409       .  A
C1460      H1465   1.083       .  S
C1461      C1462   1.399       .  A
C1462      N1463   1.435       .  S
N1463      H1467   1.045   1_455  S
N1463      H1468   1.045       .  S
N1466      H1469   1.042       .  S
N1466      H1470   1.045       .  S
C1471      C1472   1.412       .  A
C1471      C1476   1.419       .  A
C1471      H1478   1.083       .  S
C1472      C1473   1.394       .  A
C1473      C1474   1.393       .  A
C1473      N1480   1.433       .  S
C1474      C1475   1.417       .  A
C1474      H1479   1.078       .  S
C1475      C1476   1.412       .  A
C1476      N1477   1.436       .  S
N1477      H1481   1.046       .  S
N1477      H1482   1.045       .  S
N1480      H1483   1.045       .  S
N1480      H1484   1.046       .  S
C1485      C1486   1.411       .  A
C1485      C1490   1.431       .  A
C1485      H1492   1.083       .  S
C1486      C1487   1.427       .  A
C1487      C1488   1.396       .  A
C1487      N1494   1.427   1_545  S
C1488      C1489   1.388       .  A
C1488      H1493   1.080       .  S
C1489      C1490   1.422       .  A
C1490      N1491   1.436       .  S
N1491      H1495   1.045       .  S
N1491      H1496   1.046       .  S
N1494      H1497   1.045       .  S
N1494      H1498   1.046       .  S
C1499      C1500   1.402       .  A
C1499      C1504   1.407   1_455  A
C1499      H1506   1.069       .  S
C1500      C1501   1.421       .  A
C1501      C1502   1.431   1_455  A
C1501      N1508   1.430       .  S
C1502      C1503   1.414       .  A
C1502      H1507   1.082       .  S
C1503      C1504   1.411       .  A
C1504      N1505   1.433       .  S
N1505      H1509   1.045       .  S
N1505      H1510   1.046       .  S
N1508      H1511   1.044       .  S
N1508      H1512   1.045       .  S
C1513      C1514   1.404       .  A
C1513      C1518   1.423       .  A
C1513      H1520   1.083       .  S
C1514      C1515   1.439       .  A
C1515      C1516   1.399       .  A
C1515      N1522   1.436       .  S
C1516      C1517   1.387       .  A
C1516      H1521   1.084       .  S
C1517      C1518   1.420       .  A
C1518      N1519   1.437       .  S
N1519      H1523   1.045       .  S
N1519      H1524   1.045       .  S
N1522      H1525   1.045       .  S
N1522      H1526   1.046       .  S
C1527      C1528   1.407       .  A
C1527      C1532   1.419       .  A
C1527      H1534   1.083       .  S
C1528      C1529   1.420       .  A
C1529      C1530   1.385       .  A
C1529      N1536   1.422       .  S
C1530      C1531   1.382       .  A
C1530      H1535   1.083       .  S
C1531      C1532   1.414       .  A
C1532      N1533   1.430       .  S
N1533      H1537   1.046       .  S
N1533      H1538   1.045       .  S
N1536      H1539   1.046       .  S
N1536      H1540   1.045   1_565  S
C1541      C1542   1.415       .  A
C1541      C1546   1.421       .  A
C1541      H1548   1.083       .  S
C1542      C1543   1.398       .  A
C1543      C1544   1.390       .  A
C1543      N1550   1.429       .  S
C1544      C1545   1.412       .  A
C1544      H1549   1.083       .  S
C1545      C1546   1.418       .  A
C1546      N1547   1.430       .  S
N1547      H1551   1.044       .  S
N1547      H1552   1.045       .  S
N1550      H1553   1.044       .  S
N1550      H1554   1.043       .  S
C1555      C1556   1.405       .  A
C1555      C1560   1.416       .  A
C1555      H1562   1.083       .  S
C1556      C1557   1.440       .  A
C1557      C1558   1.391       .  A
C1557      N1564   1.431       .  S
C1558      C1559   1.387       .  A
C1558      H1563   1.084       .  S
C1559      C1560   1.417       .  A
C1560      N1561   1.432       .  S
N1561      H1565   1.045       .  S
N1561      H1566   1.044       .  S
N1564      H1567   1.040       .  S
N1564      H1568   1.043       .  S
C1569      C1570   1.404       .  A
C1569      C1574   1.415   1_565  A
C1569      H1576   1.075       .  S
C1570      C1571   1.423       .  A
C1571      C1572   1.438   1_565  A
C1571      N1578   1.427       .  S
C1572      C1573   1.417       .  A
C1572      H1577   1.082       .  S
C1573      C1574   1.415       .  A
C1574      N1575   1.425       .  S
N1575      H1579   1.046       .  S
N1575      H1580   1.046       .  S
N1578      H1581   1.046       .  S
N1578      H1582   1.045       .  S
C1583      C1584   1.411       .  A
C1583      C1588   1.424   1_655  A
C1583      H1590   1.083       .  S
C1584      C1585   1.409       .  A
C1585      C1586   1.409   1_655  A
C1585      N1592   1.432       .  S
C1586      C1587   1.405       .  A
C1586      H1591   1.074       .  S
C1587      C1588   1.426       .  A
C1588      N1589   1.429       .  S
N1589      H1593   1.041       .  S
N1589      H1594   1.044       .  S
N1592      H1595   1.045       .  S
N1592      H1596   1.044       .  S
