geometry optimzed in LAMMPS
_audit_creation_date              2020-12-01 
_audit_creation_method            'lammps2cif' 
_symmetry_space_group_name_H-M    'P1' 
_symmetry_Int_Tables_number       1 
_symmetry_cell_setting            triclinic 
loop_ 
_symmetry_equiv_pos_as_xyz 
  x,y,z 
_cell_length_a                    56.37894371 
_cell_length_b                    56.37272544276981 
_cell_length_c                    56.398197146541115 
_cell_angle_alpha                 90.24395929256075 
_cell_angle_beta                  89.9145462197532 
_cell_angle_gamma                 89.8296079197838 
loop_ 
_atom_site_label 
_atom_site_type_symbol 
_atom_site_fract_x 
_atom_site_fract_y 
_atom_site_fract_z 
_atom_site_charge 
C1          C  0.09522869  0.09555668  0.09881111     0.86500
C2          C  0.11241810  0.08276384  0.11611091    -0.53800
C3          C  0.12558176  0.09770235  0.13000522     0.09400
C4          C  0.11998557  0.12405020  0.12633279     0.20300
C5          C  0.08019254  0.11056225  0.11646810    -0.54500
C6          C  0.09308090  0.12579919  0.13031967     0.09500
C7          C  0.11077731  0.11371244  0.08551102    -0.54000
C8          C  0.12373464  0.12839048  0.09978888     0.10100
H9          H  0.11309852  0.06375868  0.11867732     0.14600
H10         H  0.13045366  0.13610722  0.13789862     0.00300
H11         H  0.06107462  0.10908071  0.11813874     0.14900
H12         H  0.11145196  0.11478739  0.06629981     0.14700
C13         C  0.87467186  0.09557996  0.88422319     0.86500
C14         C  0.85570334  0.10986672  0.89835072    -0.53800
C15         C  0.84132730  0.12396876  0.88483465     0.09400
C16         C  0.84763790  0.12348186  0.85829888     0.20300
C17         C  0.86077213  0.08274108  0.86453578    -0.54500
C18         C  0.84669397  0.09719173  0.85115754     0.09500
C19         C  0.88813891  0.11568222  0.87101813    -0.54000
C20         C  0.87412762  0.12976259  0.85697263     0.10100
H21         H  0.85433384  0.10979275  0.91752710     0.14600
H22         H  0.83619106  0.13503980  0.84719671     0.00300
H23         H  0.86205371  0.06375552  0.86141383     0.14900
H24         H  0.90708716  0.11855209  0.87233627     0.14700
C25         C  0.88383322  0.87915707  0.09718564     0.86500
C26         C  0.89984827  0.86431049  0.11398838    -0.53800
C27         C  0.88774852  0.85024602  0.12965223     0.09400
C28         C  0.86065261  0.85184178  0.12702422     0.20300
C29         C  0.86867270  0.85942916  0.08533563    -0.54500
C30         C  0.85599450  0.84587973  0.10088528     0.09500
C31         C  0.86634977  0.89240485  0.11367463    -0.54000
C32         C  0.85454801  0.87826828  0.12931008     0.10100
H33         H  0.91908046  0.86427111  0.11296222     0.14600
H34         H  0.85073418  0.84038252  0.13956680     0.00300
H35         H  0.86870582  0.85526465  0.06661278     0.14900
H36         H  0.86353571  0.91145914  0.11295545     0.14700
C37         C  0.10005430  0.88543953  0.88048683     0.86500
C38         C  0.11860214  0.89758587  0.86411800    -0.53800
C39         C  0.13155634  0.88233925  0.85024017     0.09400
C40         C  0.12630518  0.85608216  0.85501226     0.20300
C41         C  0.08596201  0.86869802  0.86379873    -0.54500
C42         C  0.09966179  0.85332362  0.85080231     0.09500
C43         C  0.11624055  0.86874216  0.89516929    -0.54000
C44         C  0.12954720  0.85322295  0.88190642     0.10100
H45         H  0.12283707  0.91626006  0.86448428     0.14600
H46         H  0.13737121  0.84369497  0.84428633     0.00300
H47         H  0.06674408  0.86892780  0.86257874     0.14900
H48         H  0.11731975  0.86934314  0.91438164     0.14700
C49         C  0.98756641  0.98992489  0.98898713    -0.02500
N50         N  0.75302290  0.68120268  0.58121214    -0.27300
N51         N  0.75822859  0.70011065  0.59412255    -0.35200
C52         C  0.78069205  0.70657240  0.58977142     0.01000
C53         C  0.79030517  0.69114119  0.57330892     0.07100
C54         C  0.77226196  0.67522022  0.56815188    -0.06000
H55         H  0.78849647  0.72301877  0.59585548     0.07700
H56         H  0.77241423  0.66177667  0.55440868     0.08900
Cu57       Cu  0.73316258  0.72239171  0.60901900     0.44200
Cu58       Cu  0.71836024  0.66816183  0.57923196     0.42000
Cu59       Cu  0.67602260  0.71642363  0.58319179     0.43900
N60         N  0.71272134  0.75122862  0.59966555    -0.34700
N61         N  0.69302798  0.74919622  0.58716661    -0.29000
C62         C  0.68908822  0.76985354  0.57576624    -0.05100
C63         C  0.70723663  0.78552898  0.58145356     0.07200
C64         C  0.72150630  0.77316298  0.59704938     0.01000
H65         H  0.67544371  0.77247485  0.56256252     0.08600
H66         H  0.73874262  0.77860247  0.60339409     0.07700
N67         N  0.66622794  0.68056984  0.58361547    -0.36100
N68         N  0.68171122  0.66292273  0.58207489    -0.28300
C69         C  0.67017725  0.64222838  0.58513156    -0.03600
C70         C  0.64627590  0.64696339  0.58842220     0.05000
C71         C  0.64450942  0.67147683  0.58774325     0.03100
H72         H  0.67877701  0.62507824  0.58644759     0.08200
H73         H  0.62885731  0.68196588  0.59136700     0.07100
N74         N  0.57288734  0.69486276  0.74517343    -0.27300
N75         N  0.59098651  0.70858275  0.75085660    -0.35200
C76         C  0.58818488  0.71653268  0.77311977     0.01000
C77         C  0.56678393  0.70836602  0.78179744     0.07100
C78         C  0.55764387  0.69440377  0.76360670    -0.06000
H79         H  0.59980701  0.72924447  0.78148921     0.07700
H80         H  0.54049374  0.68580005  0.76320061     0.08900
Cu81       Cu  0.61132379  0.72596478  0.72610887     0.44200
Cu82       Cu  0.56959064  0.67981211  0.71147931     0.42000
Cu83       Cu  0.58771722  0.72230536  0.66846932     0.43900
N84         N  0.60371906  0.75576461  0.70643651    -0.34700
N85         N  0.59274104  0.75473279  0.68578817    -0.29000
C86         C  0.58251930  0.77597960  0.68156532    -0.05100
C87         C  0.58744611  0.79099546  0.70050626     0.07200
C88         C  0.60089615  0.77752095  0.71585687     0.01000
H89         H  0.57026944  0.77941047  0.66723132     0.08600
H90         H  0.60524976  0.78208158  0.73391021     0.07700
N91         N  0.58539151  0.68602879  0.66099437    -0.36100
N92         N  0.57793547  0.67029494  0.67664664    -0.28300
C93         C  0.58025865  0.64832648  0.66728571    -0.03600
C94         C  0.58973926  0.65039167  0.64472747     0.05000
C95         C  0.59293359  0.67448462  0.64142189     0.03100
H96         H  0.57682175  0.63204893  0.67675228     0.08200
H97         H  0.60101629  0.68291314  0.62630691     0.07100
N98         N  0.44577269  0.69335177  0.24394363    -0.27300
N99         N  0.46099122  0.71059554  0.24828174    -0.35200
C100        C  0.46960512  0.71889969  0.22773887     0.01000
C101        C  0.45944603  0.70623655  0.20947706     0.07100
C102        C  0.44436191  0.69013227  0.22026417    -0.06000
H103        H  0.48073086  0.73438739  0.22613330     0.07700
H104        H  0.43228343  0.67812225  0.21155848     0.08900
Cu105      Cu  0.46253971  0.72820956  0.28011237     0.44200
Cu106      Cu  0.42560775  0.67852337  0.27117063     0.42000
Cu107      Cu  0.40906703  0.72393970  0.31367451     0.43900
N108        N  0.44443529  0.75741113  0.29218135    -0.34700
N109        N  0.42327193  0.75664672  0.30228145    -0.29000
C110        C  0.41352831  0.77862074  0.30109674    -0.05100
C111        C  0.42955727  0.79353935  0.28973079     0.07200
C112        C  0.44878614  0.77941404  0.28445140     0.01000
H113        H  0.39574761  0.78310673  0.30687814     0.08600
H114        H  0.46395863  0.78428395  0.27376945     0.07700
N115        N  0.40356021  0.68728635  0.31943093    -0.36100
N116        N  0.40988462  0.67081427  0.30381112    -0.28300
C117        C  0.40515786  0.64917887  0.31278161    -0.03600
C118        C  0.39540297  0.65201747  0.33513187     0.05000
C119        C  0.39444828  0.67640008  0.33870809     0.03100
H120        H  0.40844388  0.63261149  0.30364464     0.08200
H121        H  0.38777978  0.68551495  0.35424989     0.07100
N122        N  0.74123620  0.43992267  0.30009368    -0.27300
N123        N  0.73772980  0.45681616  0.28433602    -0.35200
C124        C  0.75866800  0.46441567  0.27598226     0.01000
C125        C  0.77652516  0.45187294  0.28702799     0.07100
C126        C  0.76486819  0.43640707  0.30229334    -0.06000
H127        H  0.76069211  0.47694493  0.26169333     0.07700
H128        H  0.77290187  0.42299900  0.31327724     0.08900
Cu129      Cu  0.70529471  0.46363876  0.26939197     0.44200
Cu130      Cu  0.71231471  0.42133035  0.31441211     0.42000
Cu131      Cu  0.66614998  0.41399502  0.26947110     0.43900
N132        N  0.68581374  0.45371395  0.24043725    -0.34700
N133        N  0.67356692  0.43380468  0.23903741    -0.29000
C134        C  0.66980282  0.42878800  0.21589471    -0.05100
C135        C  0.68012881  0.44662610  0.20246086     0.07200
C136        C  0.68999471  0.46198883  0.21862949     0.01000
H137        H  0.66172777  0.41267864  0.20933726     0.08600
H138        H  0.70177429  0.47659256  0.21472047     0.07700
N139        N  0.66231241  0.40350349  0.30488897    -0.36100
N140        N  0.67869561  0.40676500  0.32141540    -0.28300
C141        C  0.66983640  0.39974385  0.34252269    -0.03600
C142        C  0.64690160  0.39166894  0.33908587     0.05000
C143        C  0.64280467  0.39416675  0.31504345     0.03100
H144        H  0.67936412  0.40046086  0.35912435     0.08200
H145        H  0.62661929  0.38986914  0.30566795     0.07100
O146        O  0.50567598  0.76451888  0.95742595    -0.73000
O147        O  0.48722563  0.76183530  0.02686765    -0.73900
O148        O  0.53023964  0.76098735  0.00120977    -0.62600
O149        O  0.46224198  0.76652101  0.98346107    -0.71000
O150        O  0.45875064  0.72738418  0.98149226    -0.70500
O151        O  0.52857043  0.72179900  0.99860629    -0.61800
O152        O  0.48510783  0.72260871  0.02407777    -0.74300
O153        O  0.50256944  0.72527890  0.95575019    -0.73100
Cu154      Cu  0.49636693  0.76482379  0.99224316     1.04600
Cu155      Cu  0.49360309  0.72289409  0.98981692     1.04300
C156        C  0.50751328  0.74497582  0.94591432     0.93200
C157        C  0.48360079  0.74157779  0.03637389     0.92400
C158        C  0.54028697  0.74078372  0.00288532     0.84500
C159        C  0.44951262  0.74813747  0.98024800     0.90800
O160        O  0.75540456  0.52071769  0.99908961    -0.73000
O161        O  0.75290794  0.45279195  0.98279738    -0.73900
O162        O  0.75575781  0.49501770  0.95558111    -0.62600
O163        O  0.75054696  0.47856376  0.02572613    -0.71000
O164        O  0.71145609  0.48205367  0.02245891    -0.70500
O165        O  0.71641899  0.49644899  0.95413817    -0.61800
O166        O  0.71361041  0.45365251  0.98099442    -0.74300
O167        O  0.71647273  0.52466458  0.99586323    -0.73100
Cu168      Cu  0.75500840  0.48673600  0.99084921     1.04600
Cu169      Cu  0.71309740  0.48929643  0.98826282     1.04300
C170        C  0.73694310  0.53372743  0.99982346     0.93200
C171        C  0.73326490  0.44213463  0.97995886     0.92400
C172        C  0.73648535  0.49837707  0.94399481     0.84500
C173        C  0.72973776  0.47745300  0.03483269     0.90800
N174        N  0.80041222  0.72346654  0.08200567    -0.27300
N175        N  0.78135222  0.71921442  0.09494518    -0.35200
C176        C  0.77334322  0.69736566  0.09009837     0.01000
C177        C  0.78792388  0.68722776  0.07323720     0.07100
C178        C  0.80502685  0.70421720  0.06845222    -0.06000
H179        H  0.75654729  0.69050227  0.09618366     0.07700
H180        H  0.81846963  0.70341381  0.05476214     0.08900
Cu181      Cu  0.76069944  0.74533098  0.10990238     0.44200
Cu182      Cu  0.81534970  0.75717085  0.08063335     0.42000
Cu183      Cu  0.76836103  0.80111014  0.08250823     0.43900
N184        N  0.73265671  0.76449258  0.09685639    -0.34700
N185        N  0.73526244  0.78408523  0.08435562    -0.29000
C186        C  0.71509915  0.78784118  0.07195744    -0.05100
C187        C  0.69933699  0.76958596  0.07699021     0.07200
C188        C  0.71109205  0.75528570  0.09289236     0.01000
H189        H  0.71277546  0.80163971  0.05889552     0.08600
H190        H  0.70542536  0.73809527  0.09902192     0.07700
N191        N  0.80457909  0.80945063  0.08593656    -0.36100
N192        N  0.82168887  0.79330523  0.08510335    -0.28300
C193        C  0.84266698  0.80384873  0.08955729    -0.03600
C194        C  0.83865019  0.82777125  0.09324328     0.05000
C195        C  0.81434184  0.83069612  0.09099455     0.03100
H196        H  0.85946137  0.79463373  0.09089303     0.08200
H197        H  0.80440536  0.84697121  0.09364187     0.07100
N198        N  0.68652264  0.54106796  0.73755761    -0.27300
N199        N  0.70110558  0.52310653  0.73355723    -0.35200
C200        C  0.70895340  0.51448083  0.75427847     0.01000
C201        C  0.69887597  0.52753581  0.77244141     0.07100
C202        C  0.68460953  0.54426759  0.76126089    -0.06000
H203        H  0.72244873  0.50096113  0.75595340     0.07700
H204        H  0.67480112  0.55847107  0.76965436     0.08900
Cu205      Cu  0.71593194  0.51605705  0.70093468     0.44200
Cu206      Cu  0.67331466  0.56134190  0.70930188     0.42000
Cu207      Cu  0.71627386  0.56466262  0.66088508     0.43900
N208        N  0.74543248  0.52551404  0.68188788    -0.34700
N209        N  0.74681223  0.54520458  0.66933582    -0.29000
C210        C  0.76989422  0.55129464  0.66742559    -0.05100
C211        C  0.78343311  0.53442531  0.67924092     0.07200
C212        C  0.76727779  0.51841602  0.68798827     0.01000
H213        H  0.77611851  0.56797254  0.66034525     0.08600
H214        H  0.77087746  0.50481911  0.70100055     0.07700
N215        N  0.68120001  0.57690207  0.65828242    -0.36100
N216        N  0.66553180  0.57554468  0.67577073    -0.28300
C217        C  0.64437339  0.58356100  0.66789952    -0.03600
C218        C  0.64682873  0.59025324  0.64442710     0.05000
C219        C  0.67039143  0.58588687  0.63895338     0.03100
H220        H  0.62831755  0.58422766  0.67840805     0.08200
H221        H  0.67894212  0.58865643  0.62201858     0.07100
N222        N  0.29806943  0.75146260  0.39316239    -0.27300
N223        N  0.27782973  0.75594189  0.38226825    -0.35200
C224        C  0.27112763  0.77830855  0.38697919     0.01000
C225        C  0.28790452  0.78844238  0.40153977     0.07100
C226        C  0.30481147  0.77099593  0.40518996    -0.06000
H227        H  0.25392503  0.78562216  0.38267123     0.07700
H228        H  0.31953653  0.77169319  0.41744191     0.08900
Cu229      Cu  0.25510913  0.72989644  0.37087412     0.44200
Cu230      Cu  0.31182557  0.71741708  0.39521394     0.42000
Cu231      Cu  0.26530950  0.67311835  0.39713630     0.43900
N232        N  0.22826533  0.70952399  0.38454947    -0.34700
N233        N  0.23178700  0.68954209  0.39623762    -0.29000
C234        C  0.21196812  0.68465090  0.40879793    -0.05100
C235        C  0.19543630  0.70251540  0.40471581     0.07200
C236        C  0.20642665  0.71783446  0.38924125     0.01000
H237        H  0.21039127  0.67031717  0.42138333     0.08600
H238        H  0.19998138  0.73509096  0.38386224     0.07700
N239        N  0.30160353  0.66480663  0.39419561    -0.36100
N240        N  0.31834118  0.68122609  0.39371595    -0.28300
C241        C  0.33947477  0.67080917  0.38978344    -0.03600
C242        C  0.33610300  0.64664880  0.38794947     0.05000
C243        C  0.31185552  0.64341793  0.39051201     0.03100
H244        H  0.35591334  0.68026252  0.38714526     0.08200
H245        H  0.30226027  0.62692252  0.38853955     0.07100
O246        O  0.98022154  0.75846481  0.45523881    -0.73000
O247        O  0.00164372  0.76335907  0.52200903    -0.73900
O248        O  0.02516191  0.76220025  0.47759865    -0.62600
O249        O  0.95634093  0.75804015  0.49992519    -0.71000
O250        O  0.95975083  0.71882193  0.50026194    -0.70500
O251        O  0.02727562  0.72307787  0.48108199    -0.61800
O252        O  0.00295562  0.72453268  0.52537687    -0.74300
O253        O  0.98381879  0.71928482  0.45592295    -0.73100
Cu254      Cu  0.99067407  0.76188872  0.48864671     1.04600
Cu255      Cu  0.99355473  0.72008430  0.49072930     1.04300
C256        C  0.97894865  0.73844935  0.44475477     0.93200
C257        C  0.00559082  0.74514124  0.53465305     0.92400
C258        C  0.03700603  0.74280933  0.47610698     0.84500
C259        C  0.94732334  0.73745842  0.50335346     0.90800
O260        O  0.02241834  0.47886131  0.76299660    -0.73000
O261        O  0.95479210  0.50522559  0.76274290    -0.73900
O262        O  0.97601046  0.45879729  0.76360735    -0.62600
O263        O  0.00122036  0.52494384  0.76377861    -0.71000
O264        O  0.00184798  0.52538754  0.72444717    -0.70500
O265        O  0.97587892  0.45799095  0.72427598    -0.61800
O266        O  0.95611929  0.50464341  0.72344019    -0.74300
O267        O  0.02161250  0.47906896  0.72368894    -0.73100
Cu268      Cu  0.98856183  0.49194340  0.76468540     1.04600
Cu269      Cu  0.98883029  0.49175397  0.72263535     1.04300
C270        C  0.03251141  0.47482056  0.74297515     0.93200
C271        C  0.94510577  0.50940348  0.74261616     0.92400
C272        C  0.97223324  0.44774485  0.74420174     0.84500
C273        C  0.00558099  0.53566756  0.74440604     0.90800
N274        N  0.08782286  0.73041111  0.79208425    -0.27300
N275        N  0.10090818  0.72749025  0.77282497    -0.35200
C276        C  0.09804581  0.70540506  0.76433032     0.01000
C277        C  0.08218653  0.69362253  0.77867930     0.07100
C278        C  0.07610983  0.70994825  0.79627074    -0.06000
H279        H  0.10473538  0.69933467  0.74739080     0.07700
H280        H  0.06265062  0.70776619  0.80976766     0.08900
Cu281      Cu  0.11328352  0.75521036  0.75285580     0.44200
Cu282      Cu  0.08401238  0.76410502  0.80799318     0.42000
Cu283      Cu  0.08319088  0.80998611  0.76298604     0.43900
N284        N  0.10078219  0.77602029  0.72578437    -0.34700
N285        N  0.08776644  0.79526416  0.72921287    -0.29000
C286        C  0.07617592  0.80024479  0.70891687    -0.05100
C287        C  0.08221248  0.78315552  0.69211498     0.07200
C288        C  0.09787017  0.76823074  0.70346878     0.01000
H289        H  0.06274838  0.81386409  0.70716921     0.08600
H290        H  0.10428108  0.75134149  0.69693768     0.07700
N291        N  0.08428460  0.81733205  0.79934007    -0.36100
N292        N  0.08498302  0.80070874  0.81585471    -0.28300
C293        C  0.08882720  0.81123998  0.83706079    -0.03600
C294        C  0.09013379  0.83560659  0.83382489     0.05000
C295        C  0.08750571  0.83871464  0.80964230     0.03100
H296        H  0.09197041  0.80178730  0.85341157     0.08200
H297        H  0.08957328  0.85513190  0.80004358     0.07100
N298        N  0.30266744  0.45438827  0.73900615    -0.27300
N299        N  0.28703680  0.47116580  0.73418866    -0.35200
C300        C  0.27883441  0.48061004  0.75447881     0.01000
C301        C  0.28929613  0.46896158  0.77323912     0.07100
C302        C  0.30455436  0.45250276  0.76281089    -0.06000
H303        H  0.26380931  0.49247304  0.75554134     0.07700
H304        H  0.31422903  0.43861470  0.77178079     0.08900
Cu305      Cu  0.26816588  0.47184202  0.70308087     0.44200
Cu306      Cu  0.31531100  0.43210164  0.71199436     0.42000
Cu307      Cu  0.26654503  0.41614884  0.67277959     0.43900
N308        N  0.23727866  0.45659250  0.69115240    -0.34700
N309        N  0.23601334  0.43510892  0.68178496    -0.29000
C310        C  0.21314091  0.42809692  0.68196051    -0.05100
C311        C  0.19959829  0.44612090  0.69207049     0.07200
C312        C  0.21551907  0.46379785  0.69760565     0.01000
H313        H  0.20705574  0.41074121  0.67653444     0.08600
H314        H  0.21185047  0.47977365  0.70763114     0.07700
N315        N  0.30190592  0.40754239  0.66594495    -0.36100
N316        N  0.31978105  0.41418044  0.67965563    -0.28300
C317        C  0.34032243  0.40802979  0.66897213    -0.03600
C318        C  0.33507687  0.39690750  0.64770546     0.05000
C319        C  0.31061263  0.39665704  0.64646296     0.03100
H320        H  0.35779657  0.41127730  0.67621203     0.08200
H321        H  0.29992988  0.38961003  0.63217607     0.07100
N322        N  0.74819278  0.28772450  0.41080431    -0.27300
N323        N  0.75000711  0.26687161  0.40016501    -0.35200
C324        C  0.77141138  0.25742079  0.40451356     0.01000
C325        C  0.78392575  0.27295955  0.41859719     0.07100
C326        C  0.76875864  0.29212965  0.42228926    -0.06000
H327        H  0.77664968  0.23960047  0.39964201     0.07700
H328        H  0.77186187  0.30727349  0.43369721     0.08900
Cu329      Cu  0.72143815  0.24791604  0.38809575     0.44200
Cu330      Cu  0.71574770  0.30606436  0.41118131     0.42000
Cu331      Cu  0.66706128  0.26371038  0.41544793     0.43900
N332        N  0.69860388  0.22326346  0.40180355    -0.34700
N333        N  0.67957547  0.22886643  0.41434447    -0.29000
C334        C  0.67308471  0.20978653  0.42718175    -0.05100
C335        C  0.68887535  0.19148449  0.42219542     0.07200
C336        C  0.70470671  0.20070593  0.40610794     0.01000
H337        H  0.65922953  0.20981114  0.44046625     0.08600
H338        H  0.72105177  0.19255109  0.40022382     0.07700
N339        N  0.66228001  0.29982318  0.40881677    -0.36100
N340        N  0.67988202  0.31520986  0.40673693    -0.28300
C341        C  0.67086909  0.33618629  0.39953371    -0.03600
C342        C  0.64650979  0.33394404  0.39733893     0.05000
C343        C  0.64172895  0.31066928  0.40320323     0.03100
H344        H  0.68135964  0.35164873  0.39528846     0.08200
H345        H  0.62469865  0.30189547  0.40219031     0.07100
O346        O  0.72646747  0.97407690  0.45951614    -0.73000
O347        O  0.72171352  0.99727467  0.52808360    -0.73900
O348        O  0.72029078  0.01878447  0.48303043    -0.62600
O349        O  0.72591089  0.95236746  0.50484954    -0.71000
O350        O  0.76522365  0.95465789  0.50525992    -0.70500
O351        O  0.75916257  0.02388989  0.48572909    -0.61800
O352        O  0.76100528  0.99874373  0.52834726    -0.74300
O353        O  0.76528135  0.97974973  0.46153833    -0.73100
Cu354      Cu  0.72218763  0.98544782  0.49374113     1.04600
Cu355      Cu  0.76400140  0.98933897  0.49515593     1.04300
C356        C  0.74709891  0.97325642  0.44990515     0.93200
C357        C  0.74123714  0.00199494  0.53872161     0.92400
C358        C  0.73833442  0.03228179  0.48208349     0.84500
C359        C  0.74608475  0.94290275  0.50857523     0.90800
O360        O  0.48341432  0.02698421  0.74871828    -0.73000
O361        O  0.50483733  0.95855575  0.75497687    -0.73900
O362        O  0.52744725  0.00313690  0.74889931    -0.62600
O363        O  0.46057970  0.98297833  0.75624196    -0.71000
O364        O  0.45685691  0.97817439  0.71733908    -0.70500
O365        O  0.52549567  0.99933384  0.70975499    -0.61800
O366        O  0.50224382  0.95509566  0.71592297    -0.74300
O367        O  0.48043400  0.02175912  0.70981999    -0.73100
Cu368      Cu  0.49416520  0.99302044  0.75355216     1.04600
Cu369      Cu  0.49115256  0.98834707  0.71183460     1.04300
C370        C  0.47861541  0.03502677  0.72806449     0.93200
C371        C  0.50709876  0.94610160  0.73605180     0.92400
C372        C  0.53702597  0.00490778  0.72852169     0.84500
C373        C  0.44796682  0.97771118  0.73827136     0.90800
N374        N  0.73916199  0.04735786  0.78703772    -0.27300
N375        N  0.74162332  0.02524978  0.77947244    -0.35200
C376        C  0.72055132  0.01701075  0.77217053     0.01000
C377        C  0.70391509  0.03468161  0.77528532     0.07100
C378        C  0.71621030  0.05377078  0.78473214    -0.06000
H379        H  0.71794043  0.00018384  0.76332655     0.07700
H380        H  0.70926562  0.07128099  0.78846219     0.08900
Cu381      Cu  0.77368926  0.00999147  0.77101164     0.44200
Cu382      Cu  0.76820177  0.06774292  0.79759152     0.42000
Cu383      Cu  0.82159295  0.04978475  0.76700361     0.43900
N384        N  0.79479947  0.01201014  0.74145914    -0.34700
N385        N  0.81122175  0.02843151  0.73875379    -0.29000
C386        C  0.81476685  0.03187150  0.71537444    -0.05100
C387        C  0.79972243  0.01685828  0.70297554     0.07200
C388        C  0.78756658  0.00446452  0.72010077     0.01000
H389        H  0.82518990  0.04615219  0.70803763     0.08600
H390        H  0.77200835  0.99368121  0.71724484     0.07700
N391        N  0.82174643  0.06960669  0.79821825    -0.36100
N392        N  0.80217146  0.07749490  0.80861819    -0.28300
C393        C  0.80812888  0.08933356  0.82854148    -0.03600
C394        C  0.83251343  0.08837111  0.83100805     0.05000
C395        C  0.84058233  0.07568876  0.81155210     0.03100
H396        H  0.79557974  0.09682166  0.84103152     0.08200
H397        H  0.85878163  0.07091104  0.80757843     0.07100
N398        N  0.38931292  0.29038486  0.75292455    -0.27300
N399        N  0.37891884  0.26943514  0.75404861    -0.35200
C400        C  0.38237610  0.26000611  0.77557001     0.01000
C401        C  0.39577678  0.27554506  0.78884584     0.07100
C402        C  0.39980579  0.29477981  0.77402047    -0.06000
H403        H  0.37784064  0.24198662  0.78027975     0.07700
H404        H  0.41116975  0.30978411  0.77762171     0.08900
Cu405      Cu  0.36994837  0.24979205  0.72473177     0.44200
Cu406      Cu  0.39204235  0.30871378  0.72064762     0.42000
Cu407      Cu  0.40158850  0.26681957  0.67267184     0.43900
N408        N  0.38666362  0.22586312  0.70279950    -0.34700
N409        N  0.40006293  0.23201150  0.68460215    -0.29000
C410        C  0.41365628  0.21331107  0.67826812    -0.05100
C411        C  0.40837970  0.19470467  0.69331323     0.07200
C412        C  0.39130949  0.20328349  0.70860697     0.01000
H413        H  0.42746506  0.21376012  0.66497491     0.08600
H414        H  0.38457335  0.19457112  0.72423720     0.07700
N415        N  0.39714850  0.30305556  0.66734263    -0.36100
N416        N  0.39293419  0.31842967  0.68467343    -0.28300
C417        C  0.38799039  0.33972745  0.67497633    -0.03600
C418        C  0.38972569  0.33772229  0.65051240     0.05000
C419        C  0.39528949  0.31419217  0.64634468     0.03100
H420        H  0.38248672  0.35527951  0.68491612     0.08200
H421        H  0.39635639  0.30545049  0.62924944     0.07100
O422        O  0.21391673  0.52457138  0.98290107    -0.73000
O423        O  0.20969201  0.45557216  0.99373862    -0.73900
O424        O  0.21254063  0.49526988  0.02466905    -0.62600
O425        O  0.21315208  0.48459448  0.95249151    -0.71000
O426        O  0.25220521  0.48032477  0.95471160    -0.70500
O427        O  0.25169864  0.49452481  0.02369878    -0.61800
O428        O  0.24861425  0.45199921  0.99698941    -0.74300
O429        O  0.25313699  0.52294458  0.98197971    -0.73100
Cu430      Cu  0.21097634  0.49009685  0.98842299     1.04600
Cu431      Cu  0.25277972  0.48736006  0.98931435     1.04300
C432        C  0.23378738  0.53484776  0.98012307     0.93200
C433        C  0.22782093  0.44287974  0.99823289     0.92400
C434        C  0.23252826  0.49619751  0.03554703     0.84500
C435        C  0.23325372  0.48079175  0.94244839     0.90800
N436        N  0.25016766  0.79934285  0.91280545    -0.27300
N437        N  0.25604677  0.77997397  0.90085253    -0.35200
C438        C  0.27813578  0.77338371  0.90670658     0.01000
C439        C  0.28676124  0.78932925  0.92309605     0.07100
C440        C  0.26864052  0.80566540  0.92665209    -0.06000
H441        H  0.28647883  0.75702267  0.90109982     0.07700
H442        H  0.26835113  0.82004883  0.93939141     0.08900
Cu443      Cu  0.23208260  0.75820725  0.88417341     0.44200
Cu444      Cu  0.21579778  0.81320635  0.91157947     0.42000
Cu445      Cu  0.17297541  0.76585442  0.90427338     0.43900
N446        N  0.21100354  0.73009222  0.89338874    -0.34700
N447        N  0.18994040  0.73268623  0.90338492    -0.29000
C448        C  0.18433118  0.71224471  0.91445206    -0.05100
C449        C  0.20287360  0.69624869  0.91116269     0.07200
C450        C  0.21929482  0.70818137  0.89759709     0.01000
H451        H  0.16893027  0.70985396  0.92564737     0.08600
H452        H  0.23712640  0.70233996  0.89351370     0.07700
N453        N  0.16440752  0.80196464  0.90091440    -0.36100
N454        N  0.18000233  0.81922692  0.90402998    -0.28300
C455        C  0.16957909  0.84014840  0.89892343    -0.03600
C456        C  0.14634496  0.83593630  0.89231291     0.05000
C457        C  0.14374728  0.81153876  0.89352329     0.03100
H458        H  0.17863430  0.85705399  0.89871826     0.08200
H459        H  0.12826171  0.80141767  0.88845048     0.07100
O460        O  0.02940136  0.50011493  0.26729041    -0.73000
O461        O  0.96225741  0.47984800  0.26912347    -0.73900
O462        O  0.00680695  0.45532561  0.26624831    -0.62600
O463        O  0.98530258  0.52440426  0.26867822    -0.71000
O464        O  0.98358264  0.52359401  0.22934948    -0.70500
O465        O  0.00605473  0.45690264  0.22693114    -0.61800
O466        O  0.96045784  0.47853197  0.23013699    -0.74300
O467        O  0.02921309  0.50111632  0.22802554    -0.73100
Cu468      Cu  0.99596331  0.48988215  0.26918585     1.04600
Cu469      Cu  0.99472818  0.49012662  0.22723225     1.04300
C470        C  0.04022208  0.50349062  0.24777247     0.93200
C471        C  0.95046566  0.47561899  0.25036035     0.92400
C472        C  0.01033947  0.44561023  0.24593187     0.84500
C473        C  0.98091467  0.53463432  0.24893723     0.90800
N474        N  0.94158722  0.73272233  0.17641268    -0.27300
N475        N  0.96133525  0.73338317  0.18899484    -0.35200
C476        C  0.96661466  0.71152021  0.19667178     0.01000
C477        C  0.94948360  0.69610930  0.18863310     0.07100
C478        C  0.93375306  0.71007230  0.17580585    -0.06000
H479        H  0.98041268  0.70756879  0.20937107     0.07700
H480        H  0.91701999  0.70453610  0.16828448     0.08900
Cu481      Cu  0.97467929  0.76376044  0.20401274     0.44200
Cu482      Cu  0.92496096  0.76412842  0.16526698     0.42000
Cu483      Cu  0.93084932  0.80911686  0.21069832     0.43900
N484        N  0.96854381  0.78074418  0.23569212    -0.34700
N485        N  0.95078850  0.79573205  0.23917967    -0.29000
C486        C  0.94676189  0.79742568  0.26275506    -0.05100
C487        C  0.96288595  0.78284811  0.27436745     0.07200
C488        C  0.97630802  0.77261122  0.25663604     0.01000
H489        H  0.93211721  0.80697351  0.27069574     0.08600
H490        H  0.98886268  0.75825052  0.25864739     0.07700
N491        N  0.91575700  0.81591911  0.17728660    -0.36100
N492        N  0.91370799  0.79938863  0.16064642    -0.28300
C493        C  0.90379865  0.80917873  0.14121957    -0.03600
C494        C  0.89951030  0.83299667  0.14570206     0.05000
C495        C  0.90719352  0.83662164  0.16877987     0.03100
H496        H  0.89990003  0.79964820  0.12501167     0.08200
H497        H  0.90649413  0.85312035  0.17871249     0.07100
N498        N  0.29542875  0.56891895  0.22984243    -0.27300
N499        N  0.27623400  0.58187048  0.22598417    -0.35200
C500        C  0.26675513  0.57594312  0.20498520     0.01000
C501        C  0.28047697  0.55838044  0.19486843     0.07100
C502        C  0.29860581  0.55422996  0.21105746    -0.06000
H503        H  0.24993949  0.58251653  0.19846448     0.07700
H504        H  0.31226796  0.54076935  0.20980497     0.08900
Cu505      Cu  0.25829296  0.60032486  0.25189635     0.44200
Cu506      Cu  0.31348195  0.57078564  0.26245988     0.42000
Cu507      Cu  0.26981265  0.57889475  0.30917354     0.43900
N508        N  0.23164196  0.59172452  0.27509726    -0.34700
N509        N  0.23565401  0.58126664  0.29561265    -0.29000
C510        C  0.21573373  0.57002651  0.30250148    -0.05100
C511        C  0.19851404  0.57377464  0.28538415     0.07200
C512        C  0.20923485  0.58759643  0.26838685     0.01000
H513        H  0.21463754  0.55805766  0.31739963     0.08600
H514        H  0.20234267  0.59142240  0.25093170     0.07700
N515        N  0.30617265  0.58168856  0.31463692    -0.36100
N516        N  0.32241050  0.57875466  0.29787120    -0.28300
C517        C  0.34390843  0.58393614  0.30712415    -0.03600
C518        C  0.34088460  0.59033418  0.33072785     0.05000
C519        C  0.31678701  0.58888572  0.33475019     0.03100
H520        H  0.36029779  0.58419099  0.29715444     0.08200
H521        H  0.30752055  0.59368565  0.35086735     0.07100
O522        O  0.48349194  0.23143685  0.03194929    -0.73000
O523        O  0.46762225  0.22321006  0.96158662    -0.73900
O524        O  0.50956186  0.21816505  0.98989027    -0.62600
O525        O  0.44212121  0.23388134  0.00398603    -0.71000
O526        O  0.44891708  0.27241721  0.99996807    -0.70500
O527        O  0.51760000  0.25583326  0.98220285    -0.61800
O528        O  0.47362899  0.26171634  0.95741104    -0.74300
O529        O  0.49307139  0.26851786  0.02408842    -0.73100
Cu530      Cu  0.47554742  0.22528066  0.99700709     1.04600
Cu531      Cu  0.48363090  0.26588622  0.99064983     1.04300
C532        C  0.49026176  0.25199193  0.03905316     0.93200
C533        C  0.46753161  0.24185428  0.94859317     0.92400
C534        C  0.52429667  0.23411359  0.98376500     0.84500
C535        C  0.43482829  0.25525154  0.00479664     0.90800
N536        N  0.78107552  0.23423781  0.93657855    -0.27300
N537        N  0.77307979  0.23251515  0.95854122    -0.35200
C538        C  0.76745665  0.25417118  0.96672674     0.01000
C539        C  0.77131257  0.27050418  0.94894303     0.07100
C540        C  0.78023851  0.25724487  0.93006647    -0.06000
H541        H  0.75904759  0.25749680  0.98369032     0.07700
H542        H  0.78443022  0.26362224  0.91248196     0.08900
Cu543      Cu  0.76057522  0.20144896  0.97298288     0.44200
Cu544      Cu  0.79052920  0.20420373  0.91676918     0.42000
Cu545      Cu  0.75754929  0.15213334  0.93417060     0.43900
N546        N  0.73108179  0.17998082  0.97140811    -0.34700
N547        N  0.72860601  0.16291546  0.95548092    -0.29000
C548        C  0.70521493  0.15797436  0.95343842    -0.05100
C549        C  0.69258211  0.17258977  0.96899271     0.07200
C550        C  0.70968916  0.18618932  0.97999026     0.01000
H551        H  0.69776321  0.14645433  0.94002994     0.08600
H552        H  0.70650796  0.20164153  0.99092804     0.07700
N553        N  0.78943365  0.15051951  0.91446402    -0.36100
N554        N  0.80054365  0.16975901  0.90695038    -0.28300
C555        C  0.82014819  0.16321840  0.89478801    -0.03600
C556        C  0.82185472  0.13873228  0.89498084     0.05000
C557        C  0.80213082  0.13125698  0.90769575     0.03100
H558        H  0.83284447  0.17543313  0.88729342     0.08200
H559        H  0.79743164  0.11310517  0.91179014     0.07100
O560        O  0.47526737  0.96174103  0.20830488    -0.73000
O561        O  0.50449391  0.02827634  0.20711984    -0.73900
O562        O  0.52212487  0.98150896  0.20621756    -0.62600
O563        O  0.45801691  0.00900424  0.20725555    -0.71000
O564        O  0.45696695  0.00881946  0.24646699    -0.70500
O565        O  0.52380756  0.98046790  0.24524118    -0.61800
O566        O  0.50451855  0.02760233  0.24646521    -0.74300
O567        O  0.47643058  0.96297065  0.24760292    -0.73100
Cu568      Cu  0.48998570  0.99513053  0.20589774     1.04600
Cu569      Cu  0.49054178  0.99509241  0.24784073     1.04300
C570        C  0.47077269  0.95230733  0.22851818     0.93200
C571        C  0.50918342  0.03814244  0.22707167     0.92400
C572        C  0.53339627  0.97632324  0.22498010     0.84500
C573        C  0.44670520  0.01234245  0.22649509     0.90800
N574        N  0.80045760  0.93131206  0.24327880    -0.27300
N575        N  0.78751878  0.95079010  0.24131044    -0.35200
C576        C  0.78124713  0.95856020  0.26294128     0.01000
C577        C  0.79069081  0.94338169  0.27954597     0.07100
C578        C  0.80281707  0.92621089  0.26653704    -0.06000
H579        H  0.76927790  0.97322060  0.26627379     0.07700
H580        H  0.81180815  0.91074954  0.27340529     0.08900
Cu581      Cu  0.77246130  0.96201097  0.21021064     0.44200
Cu582      Cu  0.81160741  0.91215926  0.21333150     0.42000
Cu583      Cu  0.77015809  0.91881805  0.16438391     0.43900
N584        N  0.74244673  0.95581316  0.19074254    -0.34700
N585        N  0.74055599  0.93832188  0.17521159    -0.29000
C586        C  0.71733316  0.93414612  0.17131568    -0.05100
C587        C  0.70424995  0.94987593  0.18514027     0.07200
C588        C  0.72075347  0.96330880  0.19710277     0.01000
H589        H  0.71051696  0.91970673  0.16069713     0.08600
H590        H  0.71724384  0.97574818  0.21129923     0.07700
N591        N  0.80371704  0.90347702  0.16079620    -0.36100
N592        N  0.81858068  0.90036591  0.17869961    -0.28300
C593        C  0.83874769  0.89045180  0.17033147    -0.03600
C594        C  0.83654245  0.88749251  0.14606368     0.05000
C595        C  0.81418041  0.89596093  0.14061194     0.03100
H596        H  0.85419752  0.88642673  0.18100240     0.08200
H597        H  0.80617860  0.89679101  0.12320628     0.07100
N598        N  0.56787472  0.23287110  0.29405049    -0.27300
N599        N  0.54617215  0.23212495  0.28526872    -0.35200
C600        C  0.54148213  0.21018970  0.27744697     0.01000
C601        C  0.56109781  0.19612370  0.28124504     0.07100
C602        C  0.57764325  0.21098100  0.29196140    -0.06000
H603        H  0.52572040  0.20535020  0.26763708     0.07700
H604        H  0.59577405  0.20659928  0.29646199     0.08900
Cu605      Cu  0.52683404  0.26145558  0.27588402     0.44200
Cu606      Cu  0.58229353  0.26537905  0.30529500     0.42000
Cu607      Cu  0.55568520  0.31606132  0.27305696     0.43900
N608        N  0.52170126  0.28437301  0.24824571    -0.34700
N609        N  0.53371236  0.30426478  0.24577274    -0.29000
C610        C  0.53168874  0.31154002  0.22308909    -0.05100
C611        C  0.51788929  0.29514165  0.21085239     0.07200
C612        C  0.51188925  0.27833695  0.22748155     0.01000
H613        H  0.54114137  0.32647998  0.21560105     0.08600
H614        H  0.50328910  0.26147920  0.22404722     0.07700
N615        N  0.57535175  0.31911964  0.30428010    -0.36100
N616        N  0.58584364  0.30121135  0.31532589    -0.28300
C617        C  0.59680697  0.30971548  0.33484447    -0.03600
C618        C  0.59256195  0.33388671  0.33638446     0.05000
C619        C  0.57892852  0.33921083  0.31677309     0.03100
H620        H  0.60641028  0.29896706  0.34747613     0.08200
H621        H  0.57209679  0.35650345  0.31190276     0.07100
O622        O  0.23252265  0.95722368  0.47700622    -0.73000
O623        O  0.23168209  0.02693694  0.49712924    -0.73900
O624        O  0.23094639  0.00214051  0.45289912    -0.62600
O625        O  0.23081559  0.98191543  0.52056848    -0.71000
O626        O  0.27015427  0.98088875  0.52100006    -0.70500
O627        O  0.27019875  0.00443871  0.45220335    -0.61800
O628        O  0.27091868  0.02610768  0.49735903    -0.74300
O629        O  0.27153056  0.95966670  0.47518106    -0.73100
Cu630      Cu  0.23010488  0.99208058  0.48684563     1.04600
Cu631      Cu  0.27204387  0.99277729  0.48646657     1.04300
C632        C  0.25275293  0.94737911  0.47341173     0.93200
C633        C  0.25160537  0.03745299  0.50032027     0.92400
C634        C  0.25009435  0.00696458  0.44189554     0.84500
C635        C  0.25012893  0.97753426  0.53136175     0.90800
N636        N  0.24321808  0.94384141  0.80133879    -0.27300
N637        N  0.24046262  0.95988915  0.78458065    -0.35200
C638        C  0.26171683  0.96828899  0.77810355     0.01000
C639        C  0.27895110  0.95693956  0.79119455     0.07100
C640        C  0.26663823  0.94148913  0.80586714    -0.06000
H641        H  0.26466098  0.97932989  0.76276248     0.07700
H642        H  0.27423513  0.92798764  0.81713542     0.08900
Cu643      Cu  0.21082152  0.96151389  0.76358767     0.44200
Cu644      Cu  0.21441598  0.92328149  0.81232372     0.42000
Cu645      Cu  0.17353374  0.91048457  0.76319258     0.43900
N646        N  0.19786977  0.94685308  0.73284557    -0.34700
N647        N  0.18558828  0.92693689  0.73176210    -0.29000
C648        C  0.18520114  0.91955565  0.70885049    -0.05100
C649        C  0.19801409  0.93569177  0.69527018     0.07200
C650        C  0.20566960  0.95260999  0.71115371     0.01000
H651        H  0.17747856  0.90310585  0.70277586     0.08600
H652        H  0.21768354  0.96701903  0.70750625     0.07700
N653        N  0.16683120  0.90153602  0.79902420    -0.36100
N654        N  0.18147211  0.90675831  0.81666783    -0.28300
C655        C  0.17134745  0.90046523  0.83739767    -0.03600
C656        C  0.14946115  0.89048920  0.83273239     0.05000
C657        C  0.14716203  0.89144069  0.80824592     0.03100
H658        H  0.17922975  0.90321902  0.85465138     0.08200
H659        H  0.13192342  0.88591592  0.79797495     0.07100
O660        O  0.02488410  0.21576358  0.50955703    -0.73000
O661        O  0.95587655  0.21483303  0.48765463    -0.73900
O662        O  0.00100104  0.21109625  0.46509240    -0.62600
O663        O  0.97991592  0.21728622  0.53148451    -0.71000
O664        O  0.97911410  0.25653595  0.52948271    -0.70500
O665        O  0.00216827  0.25018890  0.46092609    -0.61800
O666        O  0.95766747  0.25392409  0.48410223    -0.74300
O667        O  0.02419784  0.25500458  0.50633199    -0.73100
Cu668      Cu  0.99048732  0.21339337  0.49849318     1.04600
Cu669      Cu  0.99089702  0.25529891  0.49505791     1.04300
C670        C  0.03507447  0.23596384  0.51172290     0.93200
C671        C  0.94588817  0.23473610  0.48291595     0.92400
C672        C  0.00473165  0.22923410  0.45228898     0.84500
C673        C  0.97553614  0.23730207  0.54103211     0.90800
N674        N  0.91814148  0.24417150  0.79493317    -0.27300
N675        N  0.94041861  0.24265609  0.78776262    -0.35200
C676        C  0.94751281  0.26371414  0.77941553     0.01000
C677        C  0.92878100  0.27951769  0.78066778     0.07100
C678        C  0.91037337  0.26652586  0.79085673    -0.06000
H679        H  0.96462139  0.26678165  0.77131539     0.07700
H680        H  0.89242167  0.27254904  0.79401890     0.08900
Cu681      Cu  0.95695774  0.21118334  0.77946474     0.44200
Cu682      Cu  0.90022834  0.21404903  0.80790112     0.42000
Cu683      Cu  0.91682996  0.16376504  0.77275391     0.43900
N684        N  0.95364589  0.19283765  0.74809828    -0.34700
N685        N  0.93698429  0.17682719  0.74436302    -0.29000
C686        C  0.93393550  0.17439025  0.72069802    -0.05100
C687        C  0.94959569  0.18959105  0.70928412     0.07200
C688        C  0.96169818  0.20090632  0.72723955     0.01000
H689        H  0.92019339  0.16386541  0.71249807     0.08600
H690        H  0.97342555  0.21591660  0.72531352     0.07700
N691        N  0.90003670  0.16037215  0.80585603    -0.36100
N692        N  0.89303408  0.17892762  0.81856785    -0.28300
C693        C  0.88281771  0.17107834  0.83879527    -0.03600
C694        C  0.88389438  0.14646088  0.83904078     0.05000
C695        C  0.89483507  0.14036427  0.81782649     0.03100
H696        H  0.87550272  0.18242453  0.85248705     0.08200
H697        H  0.89852391  0.12255364  0.81144676     0.07100
N698        N  0.29783769  0.24643807  0.53687973    -0.27300
N699        N  0.27899885  0.24989684  0.52343652    -0.35200
C700        C  0.27075277  0.22890808  0.51577946     0.01000
C701        C  0.28512951  0.21124428  0.52466476     0.07100
C702        C  0.30220147  0.22290354  0.53802268    -0.06000
H703        H  0.25426785  0.22653573  0.50628953     0.07700
H704        H  0.31562596  0.21481466  0.54905644     0.08900
Cu705      Cu  0.26020369  0.28117497  0.52340511     0.44200
Cu706      Cu  0.31254354  0.27450249  0.55610037     0.42000
Cu707      Cu  0.26447981  0.31114945  0.57931164     0.43900
N708        N  0.23126761  0.29364153  0.54171476    -0.34700
N709        N  0.23210938  0.30180575  0.56370519    -0.29000
C710        C  0.21025444  0.29988020  0.57341297    -0.05100
C711        C  0.19525312  0.28999342  0.55654293     0.07200
C712        C  0.20917974  0.28658511  0.53673609     0.01000
H713        H  0.20609815  0.30349901  0.59179409     0.08600
H714        H  0.20430862  0.27684188  0.52091976     0.07700
N715        N  0.30049376  0.31887858  0.58422035    -0.36100
N716        N  0.31791092  0.30625221  0.57460584    -0.28300
C717        C  0.33869528  0.31720769  0.57892289    -0.03600
C718        C  0.33421046  0.33744258  0.59217279     0.05000
C719        C  0.30987091  0.33786252  0.59537699     0.03100
H720        H  0.35586722  0.31075321  0.57310413     0.08200
H721        H  0.29966909  0.35134740  0.60455994     0.07100
N722        N  0.04717444  0.24199014  0.18604078    -0.27300
N723        N  0.02740633  0.24211952  0.19867400    -0.35200
C724        C  0.02218270  0.26440301  0.20526374     0.01000
C725        C  0.03941276  0.27918353  0.19641857     0.07100
C726        C  0.05509795  0.26449696  0.18428057    -0.06000
H727        H  0.00816255  0.26920860  0.21750915     0.07700
H728        H  0.07170974  0.26957775  0.17614602     0.08900
Cu729      Cu  0.01319124  0.21245999  0.21401170     0.44200
Cu730      Cu  0.06311116  0.21019147  0.17514201     0.42000
Cu731      Cu  0.04860768  0.16029441  0.21352617     0.43900
N732        N  0.01714702  0.19138451  0.24330639    -0.34700
N733        N  0.03162585  0.17293833  0.24413116    -0.29000
C734        C  0.03528225  0.16728521  0.26709891    -0.05100
C735        C  0.02235833  0.18301701  0.28109337     0.07200
C736        C  0.01118694  0.19798352  0.26540991     0.01000
H737        H  0.04765446  0.15399358  0.27316197     0.08600
H738        H  0.00139735  0.21390279  0.26979917     0.07700
N739        N  0.06491217  0.15655352  0.18028877    -0.36100
N740        N  0.07118326  0.17480237  0.16696788    -0.28300
C741        C  0.08209429  0.16660094  0.14727298    -0.03600
C742        C  0.08230331  0.14208161  0.14797454     0.05000
C743        C  0.07127915  0.13627892  0.16912215     0.03100
H744        H  0.08902711  0.17763573  0.13331206     0.08200
H745        H  0.06851780  0.11866006  0.17608304     0.07100
N746        N  0.24935895  0.08760227  0.18137283    -0.27300
N747        N  0.25376381  0.10054359  0.20044230    -0.35200
C748        C  0.27659795  0.09787694  0.20654961     0.01000
C749        C  0.28716629  0.08250591  0.19064407     0.07100
C750        C  0.26941672  0.07624122  0.17486562    -0.06000
H751        H  0.28409114  0.10405859  0.22306983     0.07700
H752        H  0.27040593  0.06268173  0.16126772     0.08900
Cu753      Cu  0.22774811  0.11236130  0.22328615     0.44200
Cu754      Cu  0.21504246  0.08255643  0.16902124     0.42000
Cu755      Cu  0.17223800  0.08308820  0.21718108     0.43900
N756        N  0.20872949  0.10032437  0.25196441    -0.34700
N757        N  0.18951167  0.08710784  0.24994166    -0.29000
C758        C  0.18623977  0.07539692  0.27054742    -0.05100
C759        C  0.20435934  0.08160937  0.28608727     0.07200
C760        C  0.21800710  0.09764883  0.27369686     0.01000
H761        H  0.17302821  0.06179844  0.27327482     0.08600
H762        H  0.23508397  0.10451183  0.27902685     0.07700
N763        N  0.16278486  0.08425600  0.18114844    -0.36100
N764        N  0.17857362  0.08361881  0.16374471    -0.28300
C765        C  0.16740906  0.08680588  0.14291683    -0.03600
C766        C  0.14343964  0.08943184  0.14725078     0.05000
C767        C  0.14112151  0.08803657  0.17168573     0.03100
H768        H  0.17627919  0.08864129  0.12599934     0.08200
H769        H  0.12508568  0.09085157  0.18188270     0.07100
N770        N  0.16338130  0.23924367  0.03168073    -0.27300
N771        N  0.17954945  0.23607300  0.01500152    -0.35200
C772        C  0.18564066  0.25714651  0.00592294     0.01000
C773        C  0.17287893  0.27460716  0.01746532     0.07100
C774        C  0.15883726  0.26267643  0.03375143    -0.06000
H775        H  0.20063932  0.25986197  0.99433310     0.07700
H776        H  0.14814927  0.27057500  0.04764183     0.08900
Cu777      Cu  0.20102407  0.20663126  0.01351934     0.44200
Cu778      Cu  0.15375956  0.21149866  0.05394756     0.42000
Cu779      Cu  0.20623552  0.17752589  0.06948829     0.43900
N780        N  0.23319957  0.19858408  0.02854378    -0.34700
N781        N  0.23579975  0.19020381  0.05025176    -0.29000
C782        C  0.25855534  0.19386011  0.05700396    -0.05100
C783        C  0.27046948  0.20516631  0.03858053     0.07200
C784        C  0.25379787  0.20767582  0.02093675     0.01000
H785        H  0.26547839  0.19006418  0.07445479     0.08600
H786        H  0.25587310  0.21750519  0.00469432     0.07700
N787        N  0.17139186  0.16750293  0.07912174    -0.36100
N788        N  0.15236119  0.17966545  0.07257699    -0.28300
C789        C  0.13272571  0.16772182  0.07902999    -0.03600
C790        C  0.13954269  0.14718785  0.09047825     0.05000
C791        C  0.16416984  0.14763957  0.09035561     0.03100
H792        H  0.11474811  0.17346316  0.07542696     0.08200
H793        H  0.17592727  0.13406567  0.09712314     0.07100
C794        C  0.38365332  0.38422126  0.60071356     0.86500
C795        C  0.36631369  0.39924840  0.61613684    -0.53800
C796        C  0.35197850  0.38627467  0.63068690     0.09400
C797        C  0.35511172  0.35947381  0.62797048     0.20300
C798        C  0.39644857  0.36773704  0.61841739    -0.54500
C799        C  0.38152807  0.35499435  0.63264343     0.09500
C800        C  0.36625703  0.36775001  0.58716753    -0.54000
C801        C  0.35174892  0.35459948  0.60141997     0.10100
H802        H  0.36467851  0.41837940  0.61510509     0.14600
H803        H  0.34315219  0.34894845  0.63952634     0.00300
H804        H  0.41562347  0.36628297  0.61952899     0.14900
H805        H  0.36474109  0.36713580  0.56800824     0.14700
C806        C  0.59776168  0.38098607  0.38600539     0.86500
C807        C  0.58549119  0.36413059  0.36827322    -0.53800
C808        C  0.60066372  0.35054334  0.35500976     0.09400
C809        C  0.62695698  0.35495201  0.36028785     0.20300
C810        C  0.61482542  0.36501127  0.40050436    -0.54500
C811        C  0.62963053  0.35117336  0.38706759     0.09500
C812        C  0.61555834  0.39537899  0.37068527    -0.54000
C813        C  0.63031926  0.38173923  0.35686746     0.10100
H814        H  0.56635673  0.36314955  0.36633651     0.14600
H815        H  0.63917015  0.34390528  0.34934942     0.00300
H816        H  0.61594329  0.36520323  0.41969233     0.14900
H817        H  0.61657500  0.41458833  0.37073630     0.14700
C818        C  0.59697310  0.60026814  0.59819340     0.86500
C819        C  0.61383259  0.61664224  0.58408950    -0.53800
C820        C  0.62834953  0.63034460  0.59786316     0.09400
C821        C  0.62496707  0.62676017  0.62450519     0.20300
C822        C  0.61346242  0.58620945  0.61520345    -0.54500
C823        C  0.62841715  0.60004211  0.62843667     0.09500
C824        C  0.58386352  0.61692449  0.61591749    -0.54000
C825        C  0.59847290  0.63121323  0.62897922     0.10100
H826        H  0.61427815  0.61718542  0.56485201     0.14600
H827        H  0.63682879  0.63800520  0.63552553     0.00300
H828        H  0.61315133  0.56707454  0.61706405     0.14900
H829        H  0.56478588  0.61733391  0.61829314     0.14700
C830        C  0.38668706  0.60100238  0.38050765     0.86500
C831        C  0.40044382  0.61907440  0.36488553    -0.53800
C832        C  0.38628483  0.63311725  0.35097127     0.09400
C833        C  0.35982319  0.62711961  0.35278183     0.20300
C834        C  0.36771240  0.61593111  0.39359427    -0.54500
C835        C  0.35381341  0.62942226  0.37914077     0.09500
C836        C  0.37286662  0.58686537  0.36131891    -0.54000
C837        C  0.35843383  0.60044996  0.34736859     0.10100
H838        H  0.41962240  0.62025270  0.36419101     0.14600
H839        H  0.34835419  0.63818359  0.34120533     0.00300
H840        H  0.36586517  0.61619197  0.41276528     0.14900
H841        H  0.37429026  0.56783915  0.35878700     0.14700
C842        C  0.48915498  0.49128699  0.49107862    -0.02500
C843        C  0.47450137  0.50919266  0.47368335     0.01300
C844        C  0.45998820  0.52817969  0.48362278     0.04100
C845        C  0.44581295  0.54333909  0.46922987    -0.11900
C846        C  0.44575460  0.54120230  0.44448543     0.23400
C847        C  0.46072373  0.52441507  0.43390747    -0.12500
C848        C  0.47566796  0.50940968  0.44770169     0.04800
C849        C  0.43018038  0.55693635  0.42931723     0.27300
C850        C  0.40828379  0.54860949  0.42070604    -0.13200
C851        C  0.39358978  0.56321271  0.40648164     0.05400
C852        C  0.40161263  0.58584168  0.39839457    -0.09100
C853        C  0.42208755  0.59519098  0.41004151     0.06200
C854        C  0.43672316  0.58050254  0.42429102    -0.13500
Br855      Br  0.46110662  0.52332921  0.39942484    -0.05600
Br856      Br  0.45568133  0.53321290  0.51717327     0.00000
Br857      Br  0.36096669  0.55330919  0.40269561     0.00500
Br858      Br  0.46590872  0.59274205  0.43734116    -0.03900
Br859      Br  0.49995715  0.49475748  0.42802172     0.00600
Br860      Br  0.42454590  0.56654711  0.48335160    -0.03200
Br861      Br  0.39822398  0.51697232  0.42889884    -0.04100
Br862      Br  0.42816798  0.62892120  0.41113504    -0.00100
C863        C  0.58080320  0.58500531  0.58142130     0.01300
C864        C  0.55850092  0.59354213  0.57285173     0.04100
C865        C  0.54288721  0.57841606  0.56012698    -0.11900
C866        C  0.54990072  0.55528898  0.55347879     0.23400
C867        C  0.57305763  0.54779805  0.55921027    -0.12500
C868        C  0.58876581  0.56290641  0.57177754     0.04800
C869        C  0.53388718  0.53982735  0.53836126     0.27300
C870        C  0.51961252  0.52242034  0.54863340    -0.13200
C871        C  0.50370086  0.50846818  0.53474017     0.05400
C872        C  0.50411175  0.50890196  0.50874498    -0.09100
C873        C  0.51834469  0.52816252  0.49918372     0.06200
C874        C  0.53253688  0.54313974  0.51381146    -0.13500
Br875      Br  0.58347836  0.51667322  0.54932735    -0.05600
Br876      Br  0.55075754  0.62699597  0.57338147     0.00000
Br877      Br  0.47926010  0.49467015  0.55454446     0.00500
Br878      Br  0.55194254  0.56799974  0.50020003    -0.03900
Br879      Br  0.62213911  0.55491322  0.57072525     0.00600
Br880      Br  0.51174522  0.58954665  0.55113375    -0.03200
Br881      Br  0.52151014  0.51891744  0.58283787    -0.04100
Br882      Br  0.52233023  0.53402386  0.46579749    -0.00100
C883        C  0.57933429  0.39584012  0.40073412     0.01300
C884        C  0.56926470  0.41719324  0.39166921     0.04100
C885        C  0.55536286  0.43229065  0.40635402    -0.11900
C886        C  0.54921139  0.42552377  0.42961308     0.23400
C887        C  0.55574022  0.40262993  0.43725748    -0.12500
C888        C  0.56960868  0.38747874  0.42256885     0.04800
C889        C  0.53450272  0.44170117  0.44540522     0.27300
C890        C  0.54532125  0.45944310  0.45900565    -0.13200
C891        C  0.53211798  0.47359852  0.47541068     0.05400
C892        C  0.50618543  0.47330423  0.47588034    -0.09100
C893        C  0.49589075  0.45425267  0.46171120     0.06200
C894        C  0.50993283  0.43874972  0.44737820    -0.13500
Br895      Br  0.54494935  0.39177771  0.46786993    -0.05600
Br896      Br  0.57014469  0.42410919  0.35810955     0.00000
Br897      Br  0.55266065  0.48787966  0.49899068     0.00500
Br898      Br  0.49542975  0.41394577  0.42838055    -0.03900
Br899      Br  0.57034239  0.35416067  0.43065202     0.00600
Br900      Br  0.54417092  0.46222890  0.39430252    -0.03200
Br901      Br  0.57925125  0.46364324  0.45508673    -0.04100
Br902      Br  0.46229756  0.44968920  0.45771026    -0.00100
C903        C  0.47180848  0.47357810  0.50596609     0.01300
C904        C  0.48194121  0.45458358  0.52018384     0.04100
C905        C  0.46779756  0.43975519  0.53487676    -0.11900
C906        C  0.44316659  0.44267776  0.53632133     0.23400
C907        C  0.43233941  0.45954861  0.52174204    -0.12500
C908        C  0.44581772  0.47381780  0.50581916     0.04800
C909        C  0.42857470  0.42752890  0.55296254     0.27300
C910        C  0.42288849  0.40390119  0.54699337    -0.13200
C911        C  0.41049589  0.38922733  0.56317465     0.05400
C912        C  0.40122004  0.39866004  0.58482811    -0.09100
C913        C  0.40989680  0.42136635  0.59189230     0.06200
C914        C  0.42219468  0.43600599  0.57565773    -0.13500
Br915      Br  0.39800575  0.46200261  0.52344715    -0.05600
Br916      Br  0.51556275  0.44929408  0.52364006     0.00000
Br917      Br  0.41086942  0.35542871  0.55713954     0.00500
Br918      Br  0.43035486  0.46797507  0.58466195    -0.03900
Br919      Br  0.42563928  0.48841270  0.48206471     0.00600
Br920      Br  0.48225890  0.41602633  0.55512711    -0.03200
Br921      Br  0.43216816  0.39164443  0.51632243    -0.04100
Br922      Br  0.40997634  0.43106899  0.62485467    -0.00100
C923        C  0.05948931  0.23813814  0.52092501     0.01300
C924        C  0.06411461  0.23433651  0.54520622     0.04100
C925        C  0.08609736  0.24112232  0.55500161    -0.11900
C926        C  0.10356726  0.25147054  0.54049255     0.23400
C927        C  0.09931332  0.25430320  0.51604276    -0.12500
C928        C  0.07723032  0.24800887  0.50636682     0.04800
C929        C  0.12614297  0.26041605  0.55069374     0.27300
C930        C  0.12860607  0.28477676  0.55598411    -0.13200
C931        C  0.15124325  0.29437268  0.56036746     0.05400
C932        C  0.17138058  0.27958365  0.55955665    -0.09100
C933        C  0.16849925  0.25482800  0.55694971     0.06200
C934        C  0.14595589  0.24527988  0.55229751    -0.13500
Br935      Br  0.12360255  0.26763523  0.49595636    -0.05600
Br936      Br  0.03963703  0.22172232  0.56543555     0.00000
Br937      Br  0.15493195  0.32797332  0.56551617     0.00500
Br938      Br  0.14241219  0.21174555  0.54637472    -0.03900
Br939      Br  0.07095647  0.25381694  0.47325731     0.00600
Br940      Br  0.09198684  0.23738450  0.58843945    -0.03200
Br941      Br  0.10109782  0.30516650  0.55546247    -0.04100
Br942      Br  0.19563006  0.23404646  0.55896633    -0.00100
C943        C  0.01118901  0.22514169  0.42713008     0.01300
C944        C  0.02953057  0.20890420  0.42143806     0.04100
C945        C  0.03280246  0.20118186  0.39788196    -0.11900
C946        C  0.01812796  0.20999929  0.37973710     0.23400
C947        C  0.00041045  0.22690218  0.38521512    -0.12500
C948        C  0.99670308  0.23419742  0.40887464     0.04800
C949        C  0.02085503  0.20111195  0.35497993     0.27300
C950        C  0.03899146  0.21006701  0.34031486    -0.13200
C951        C  0.04047027  0.20289666  0.31639563     0.05400
C952        C  0.02365103  0.18697024  0.30697469    -0.09100
C953        C  0.00598019  0.17749059  0.32178690     0.06200
C954        C  0.00475753  0.18428610  0.34581707    -0.13500
Br955      Br  0.98065967  0.23942703  0.36027122    -0.05600
Br956      Br  0.05012576  0.19686074  0.44596789     0.00000
Br957      Br  0.06491397  0.21569352  0.29622492     0.00500
Br958      Br  0.98066163  0.17101134  0.36609961    -0.03900
Br959      Br  0.97021314  0.25468056  0.41641763     0.00600
Br960      Br  0.05673248  0.17769376  0.39054140    -0.03200
Br961      Br  0.06117033  0.23292611  0.35280730    -0.04100
Br962      Br  0.98283778  0.15596959  0.30874740    -0.00100
C963        C  0.96613799  0.23694044  0.56560376     0.01300
C964        C  0.94885346  0.21972657  0.57134603     0.04100
C965        C  0.94477384  0.21348273  0.59507843    -0.11900
C966        C  0.95718710  0.22503181  0.61337363     0.23400
C967        C  0.97247593  0.24404170  0.60788513    -0.12500
C968        C  0.97699020  0.25002218  0.58399519     0.04800
C969        C  0.95508378  0.21607197  0.63808221     0.27300
C970        C  0.93566299  0.22274871  0.65241885    -0.13200
C971        C  0.93324749  0.21333965  0.67542788     0.05400
C972        C  0.95010429  0.19696688  0.68409830    -0.09100
C973        C  0.96930608  0.19005272  0.66959806     0.06200
C974        C  0.97183381  0.19959686  0.64669125    -0.13500
Br975      Br  0.98807442  0.26098629  0.63315900    -0.05600
Br976      Br  0.93070874  0.20437003  0.54659749     0.00000
Br977      Br  0.90733925  0.22359892  0.69537397     0.00500
Br978      Br  0.99825075  0.19009544  0.62698008    -0.03900
Br979      Br  0.99911541  0.27497673  0.57667339     0.00600
Br980      Br  0.92322481  0.18799348  0.60250820    -0.03200
Br981      Br  0.91251092  0.24490573  0.64041877    -0.04100
Br982      Br  0.99209705  0.16733646  0.68120834    -0.00100
C983        C  0.28014440  0.18552832  0.52335145     0.01300
C984        C  0.29173318  0.17138778  0.50626228     0.04100
C985        C  0.28485449  0.14762490  0.50283486    -0.11900
C986        C  0.26668900  0.13774530  0.51687358     0.23400
C987        C  0.25554576  0.15168983  0.53444805    -0.12500
C988        C  0.26223231  0.17554779  0.53765115     0.04800
C989        C  0.26078364  0.11216737  0.51436306     0.27300
C990        C  0.24308493  0.10457866  0.49846706    -0.13200
C991        C  0.23901391  0.08012900  0.49481201     0.05400
C992        C  0.25306568  0.06307629  0.50675497    -0.09100
C993        C  0.27069049  0.07097889  0.52292391     0.06200
C994        C  0.27402041  0.09535451  0.52707308    -0.13500
Br995      Br  0.23131825  0.13788987  0.55420935    -0.05600
Br996      Br  0.31711645  0.18466267  0.48766631     0.00000
Br997      Br  0.21574179  0.07045482  0.47162672     0.00500
Br998      Br  0.29725570  0.10603345  0.54989751    -0.03900
Br999      Br  0.24739818  0.19436967  0.56213560     0.00600
Br1000     Br  0.30020305  0.12851472  0.47882726    -0.03200
Br1001     Br  0.22515100  0.12788099  0.48102761    -0.04100
Br1002     Br  0.29132051  0.04893936  0.53915045    -0.00100
C1003       C  0.21154540  0.06936827  0.30826932     0.01300
C1004       C  0.19752894  0.07133657  0.32892481     0.04100
C1005       C  0.20504815  0.06063564  0.35023782    -0.11900
C1006       C  0.22674086  0.04809817  0.35109609     0.23400
C1007       C  0.24065735  0.04597701  0.33044547    -0.12500
C1008       C  0.23308279  0.05642916  0.30909555     0.04800
C1009       C  0.23481156  0.03684295  0.37360335     0.27300
C1010       C  0.24865806  0.04971921  0.38999985    -0.13200
C1011       C  0.25532768  0.03937180  0.41177723     0.05400
C1012       C  0.24814817  0.01605260  0.41726737    -0.09100
C1013       C  0.23565232  0.00272448  0.40012876     0.06200
C1014       C  0.22886040  0.01310965  0.37848302    -0.13500
Br1015     Br  0.27019340  0.02862403  0.33155450    -0.05600
Br1016     Br  0.16853789  0.08957172  0.32826568     0.00000
Br1017     Br  0.27322746  0.05762331  0.43451238     0.00500
Br1018     Br  0.21092789  0.99503146  0.35560445    -0.03900
Br1019     Br  0.25204178  0.05212020  0.28084602     0.00600
Br1020     Br  0.18574660  0.06317852  0.37839602    -0.03200
Br1021     Br  0.25789915  0.08178571  0.38273075    -0.04100
Br1022     Br  0.22837900  0.96991550  0.40608859    -0.00100
C1023       C  0.24842925  0.96837829  0.55597678     0.01300
C1024       C  0.24502296  0.98435866  0.57497549     0.04100
C1025       C  0.23868393  0.97598875  0.59762998    -0.11900
C1026       C  0.23475479  0.95158233  0.60134858     0.23400
C1027       C  0.23889580  0.93543979  0.58261797    -0.12500
C1028       C  0.24552646  0.94382276  0.55998635     0.04800
C1029       C  0.22446811  0.94344840  0.62437372     0.27300
C1030       C  0.23911694  0.93382955  0.64216943    -0.13200
C1031       C  0.22966588  0.92880465  0.66477943     0.05400
C1032       C  0.20579744  0.93434960  0.67011548    -0.09100
C1033       C  0.19092362  0.94299137  0.65204252     0.06200
C1034       C  0.20009752  0.94704154  0.62911950    -0.13500
Br1035     Br  0.23438328  0.90194197  0.58775462    -0.05600
Br1036     Br  0.24681090  0.01795818  0.56949634     0.00000
Br1037     Br  0.24957091  0.91487480  0.68878797     0.00500
Br1038     Br  0.17954585  0.95866431  0.60440236    -0.03900
Br1039     Br  0.24845544  0.92176225  0.53399777     0.00600
Br1040     Br  0.23447901  0.99808555  0.62354261    -0.03200
Br1041     Br  0.27246687  0.92910587  0.63605881    -0.04100
Br1042     Br  0.15843564  0.95101707  0.65924414    -0.00100
C1043       C  0.56384184  0.17182527  0.27146675     0.01300
C1044       C  0.56273790  0.16840934  0.24667344     0.04100
C1045       C  0.55742526  0.14588960  0.23722811    -0.11900
C1046       C  0.55317187  0.12667944  0.25251248     0.23400
C1047       C  0.55686563  0.12950382  0.27712294    -0.12500
C1048       C  0.56229069  0.15206450  0.28657806     0.04800
C1049       C  0.54224377  0.10452543  0.24306690     0.27300
C1050       C  0.51739864  0.10338171  0.24016898    -0.13200
C1051       C  0.50662043  0.08205609  0.23283658     0.05400
C1052       C  0.52056364  0.06172479  0.22850009    -0.09100
C1053       C  0.54547993  0.06329935  0.22990217     0.06200
C1054       C  0.55631448  0.08463607  0.23721662    -0.13500
Br1055     Br  0.55285951  0.10278460  0.29795790    -0.05600
Br1056     Br  0.56749740  0.19491950  0.22567037     0.00000
Br1057     Br  0.47270007  0.08048181  0.22900590     0.00500
Br1058     Br  0.59032408  0.08651439  0.23994942    -0.03900
Br1059     Br  0.56575218  0.15633600  0.32031998     0.00600
Br1060     Br  0.55441025  0.14155588  0.20343095    -0.03200
Br1061     Br  0.49806754  0.13087784  0.24713448    -0.04100
Br1062     Br  0.56465408  0.03594285  0.22231200    -0.00100
C1063       C  0.42140065  0.01955880  0.22460873     0.01300
C1064       C  0.40766137  0.01041915  0.20555668     0.04100
C1065       C  0.38533767  0.02016163  0.20045443    -0.11900
C1066       C  0.37578043  0.03791422  0.21515504     0.23400
C1067       C  0.38818995  0.04536902  0.23551689    -0.12500
C1068       C  0.41113840  0.03649274  0.24012890     0.09000
C1069       C  0.35293684  0.04912659  0.20862421     0.27300
C1070       C  0.35283432  0.06956626  0.19431345    -0.13200
C1071       C  0.33118524  0.07995125  0.18754227     0.05400
C1072       C  0.30964347  0.06990396  0.19503071    -0.09100
C1073       C  0.30973993  0.04913234  0.20890072     0.06200
C1074       C  0.33138368  0.03872786  0.21564690    -0.13500
Br1075     Br  0.37373184  0.06816763  0.25669005    -0.05600
Br1076     Br  0.41845081  0.98364629  0.18674138     0.00000
Br1077     Br  0.33090584  0.10796677  0.16805139     0.00500
Br1078     Br  0.33167189  0.01027927  0.23455436    -0.03900
Br1079     Br  0.42847420  0.04857801  0.26702323     0.00600
Br1080     Br  0.36796220  0.00976363  0.17278233    -0.03200
Br1081     Br  0.38243318  0.08321908  0.18401255    -0.04100
Br1082     Br  0.28023493  0.03520239  0.21909386    -0.00100
C1083       C  0.55779494  0.96605095  0.22228984     0.01300
C1084       C  0.57582078  0.97038366  0.23932865     0.04100
C1085       C  0.59956550  0.96410166  0.23428830    -0.11900
C1086       C  0.60557076  0.95383815  0.21229541     0.23400
C1087       C  0.58771326  0.94780592  0.19613341    -0.12500
C1088       C  0.56395817  0.95366543  0.20101223     0.04800
C1089       C  0.63075322  0.95208198  0.20482152     0.27300
C1090       C  0.64087411  0.97088011  0.19192860    -0.13200
C1091       C  0.66472076  0.96967510  0.18475685     0.05400
C1092       C  0.67859979  0.94968305  0.19045264    -0.09100
C1093       C  0.66846497  0.93082597  0.20336274     0.06200
C1094       C  0.64441842  0.93184988  0.21013920    -0.13500
Br1095     Br  0.59631121  0.93250280  0.16655461    -0.05600
Br1096     Br  0.56918020  0.98671031  0.26879187     0.00000
Br1097     Br  0.67846903  0.99556643  0.16722934     0.00500
Br1098     Br  0.63007920  0.90569339  0.22672119    -0.03900
Br1099     Br  0.54062020  0.94462078  0.17752326     0.00600
Br1100     Br  0.62438899  0.97054624  0.25694314    -0.03200
Br1101     Br  0.62193059  0.99836874  0.18416353    -0.04100
Br1102     Br  0.68787217  0.90450923  0.21347095    -0.00100
C1103       C  0.51456793  0.29194811  0.18496390     0.01300
C1104       C  0.49145117  0.28841837  0.17604149     0.04100
C1105       C  0.48809615  0.28105163  0.15243927    -0.11900
C1106       C  0.50777128  0.27785545  0.13732529     0.23400
C1107       C  0.53083272  0.28219428  0.14586398    -0.12500
C1108       C  0.53430220  0.28885210  0.16972607     0.04800
C1109       C  0.50392544  0.27089769  0.11218729     0.27300
C1110       C  0.50697399  0.24718498  0.10473289    -0.13200
C1111       C  0.50280270  0.24071575  0.08087930     0.05400
C1112       C  0.49425109  0.25779860  0.06460413    -0.09100
C1113       C  0.48999645  0.28138505  0.07278405     0.06200
C1114       C  0.49595292  0.28801039  0.09603773    -0.13500
Br1115     Br  0.55765067  0.27859922  0.12482134    -0.05600
Br1116     Br  0.46419170  0.29385631  0.19612963     0.00000
Br1117     Br  0.50972489  0.20864458  0.07088815     0.00500
Br1118     Br  0.49322332  0.32079292  0.10600880    -0.03900
Br1119     Br  0.56623089  0.29174794  0.18166266     0.00600
Br1120     Br  0.45650412  0.27477081  0.14081568    -0.03200
Br1121     Br  0.51671654  0.22360517  0.12746722    -0.04100
Br1122     Br  0.47398861  0.30484420  0.05344736    -0.00100
C1123       C  0.29432267  0.21634877  0.03839705     0.01300
C1124       C  0.31481650  0.20223065  0.03568261     0.04100
C1125       C  0.33700990  0.21293620  0.03148248    -0.11900
C1126       C  0.33890302  0.23786619  0.02994859     0.23400
C1127       C  0.31859180  0.25204781  0.03358603    -0.12500
C1128       C  0.29638033  0.24134364  0.03778636     0.04800
C1129       C  0.36231314  0.24876374  0.02414195     0.27300
C1130       C  0.37959276  0.25141053  0.04197284    -0.13200
C1131       C  0.40332468  0.25620183  0.03578622     0.05400
C1132       C  0.40979334  0.25909145  0.01179759    -0.09100
C1133       C  0.39200880  0.25918516  0.99427428     0.06200
C1134       C  0.36833394  0.25381263  0.00038067    -0.13500
Br1135     Br  0.32124495  0.28611541  0.03237311    -0.05600
Br1136     Br  0.31224617  0.16814343  0.03634099     0.00000
Br1137     Br  0.42738617  0.25684735  0.06001239     0.00500
Br1138     Br  0.34449904  0.25155193  0.97600582    -0.03900
Br1139     Br  0.26869683  0.26100167  0.04273011     0.00600
Br1140     Br  0.36484826  0.19340095  0.02696784    -0.03200
Br1141     Br  0.37092955  0.24677511  0.07471555    -0.04100
Br1142     Br  0.40055565  0.26486572  0.96168584    -0.00100
C1143       C  0.66693896  0.17893818  0.96850377     0.01300
C1144       C  0.65827702  0.19451079  0.95096372     0.04100
C1145       C  0.63524954  0.20424342  0.95289400    -0.11900
C1146       C  0.62019862  0.19759773  0.97172906     0.23400
C1147       C  0.62844591  0.18110559  0.98862288    -0.12500
C1148       C  0.65191543  0.17231954  0.98736368     0.04800
C1149       C  0.59581951  0.20804982  0.97386864     0.27300
C1150       C  0.59120445  0.22655351  0.99022441    -0.13200
C1151       C  0.56796670  0.23564012  0.99301410     0.05400
C1152       C  0.54925132  0.22682457  0.97893399    -0.09100
C1153       C  0.55405238  0.20880953  0.96207012     0.06200
C1154       C  0.57712533  0.19926687  0.95978193    -0.13500
Br1155     Br  0.60755261  0.17077583  0.01363039    -0.05600
Br1156     Br  0.67834473  0.20332416  0.92471771     0.00000
Br1157     Br  0.56143941  0.25876435  0.01750885     0.00500
Br1158     Br  0.58304453  0.17349841  0.93791032    -0.03900
Br1159     Br  0.66375755  0.15164055  0.01180543     0.00600
Br1160     Br  0.62467011  0.22763503  0.93037113    -0.03200
Br1161     Br  0.61675109  0.23909851  0.00917352    -0.04100
Br1162     Br  0.52898117  0.19732885  0.94179987    -0.00100
C1163       C  0.17666118  0.56005710  0.28139303     0.01300
C1164       C  0.15504079  0.56806859  0.29101472     0.04100
C1165       C  0.13363364  0.55739796  0.28397599    -0.11900
C1166       C  0.13383102  0.53889560  0.26705558     0.23400
C1167       C  0.15554895  0.53032723  0.25805573    -0.12500
C1168       C  0.17696440  0.54068731  0.26546549     0.04800
C1169       C  0.11117882  0.52794559  0.25946911     0.27300
C1170       C  0.10290606  0.50762858  0.27115716    -0.13200
C1171       C  0.08039451  0.49849393  0.26578313     0.05400
C1172       C  0.06568765  0.51000048  0.24898080    -0.09100
C1173       C  0.07479971  0.52932963  0.23597448     0.06200
C1174       C  0.09749820  0.53832819  0.24134344    -0.13500
Br1175     Br  0.15581259  0.50474071  0.23522146    -0.05600
Br1176     Br  0.15484920  0.59400878  0.31340278     0.00000
Br1177     Br  0.07008501  0.46989871  0.28154192     0.00500
Br1178     Br  0.10962085  0.56556016  0.22468941    -0.03900
Br1179     Br  0.20677178  0.52828996  0.25389646     0.00600
Br1180     Br  0.10394324  0.56824542  0.29723387    -0.03200
Br1181     Br  0.12212895  0.49300870  0.29541324    -0.04100
Br1182     Br  0.05600572  0.54450992  0.21180481    -0.00100
C1183       C  0.01967261  0.42120619  0.24363201     0.01300
C1184       C  0.04145190  0.41732067  0.23175826     0.04100
C1185       C  0.04863189  0.39414083  0.22572425    -0.11900
C1186       C  0.03374957  0.37484587  0.23082787     0.23400
C1187       C  0.01245585  0.37856778  0.24345503    -0.12500
C1188       C  0.00540257  0.40171088  0.24979604     0.04800
C1189       C  0.03881587  0.35112172  0.22049627     0.27300
C1190       C  0.02973083  0.34538025  0.19791375    -0.13200
C1191       C  0.03140374  0.32200214  0.18926900     0.05400
C1192       C  0.04218762  0.30432708  0.20314031    -0.09100
C1193       C  0.05236249  0.31032759  0.22520600     0.06200
C1194       C  0.05088214  0.33378874  0.23376847    -0.13500
Br1195     Br  0.99222714  0.35196743  0.25062880    -0.05600
Br1196     Br  0.06085268  0.44382752  0.22234429     0.00000
Br1197     Br  0.01762894  0.31377785  0.15906990     0.00500
Br1198     Br  0.06451159  0.34213706  0.26399778    -0.03900
Br1199     Br  0.97489023  0.40682024  0.26430025     0.00600
Br1200     Br  0.07826852  0.38874119  0.20940933    -0.03200
Br1201     Br  0.01393341  0.36939518  0.17938162    -0.04100
Br1202     Br  0.06706537  0.28608891  0.24429698    -0.00100
C1203       C  0.94663987  0.67153608  0.19728337     0.01300
C1204       C  0.93735075  0.66755232  0.22016761     0.04100
C1205       C  0.94050594  0.64539135  0.23121745    -0.11900
C1206       C  0.95242072  0.62694892  0.21913901     0.23400
C1207       C  0.95982825  0.63031955  0.19548051    -0.12500
C1208       C  0.95718879  0.65265586  0.18468881     0.04800
C1209       C  0.95836310  0.60440639  0.23144154     0.27300
C1210       C  0.98142658  0.60087228  0.24053066    -0.13200
C1211       C  0.98840138  0.57828456  0.24862169     0.05400
C1212       C  0.97223773  0.55930854  0.24789284    -0.09100
C1213       C  0.94858129  0.56347125  0.24104934     0.06200
C1214       C  0.94169574  0.58587737  0.23252970    -0.13500
Br1215     Br  0.97445618  0.60449265  0.17824496    -0.05600
Br1216     Br  0.92093336  0.69275955  0.23659387     0.00000
Br1217     Br  0.02039832  0.57292964  0.25939095     0.00500
Br1218     Br  0.90994112  0.59073293  0.22084863    -0.03900
Br1219     Br  0.96906743  0.65784956  0.15307740     0.00600
Br1220     Br  0.92967415  0.64060979  0.26329571    -0.03200
Br1221     Br  0.00378672  0.62671477  0.24059093    -0.04100
Br1222     Br  0.92584051  0.53808799  0.24281971    -0.00100
C1223       C  0.23465676  0.49923987  0.06190499     0.01300
C1224       C  0.25426218  0.48873244  0.07374146     0.04100
C1225       C  0.26076724  0.49635150  0.09662979    -0.11900
C1226       C  0.24712662  0.51357884  0.10853808     0.23400
C1227       C  0.22580371  0.52163943  0.09825651    -0.12500
C1228       C  0.21945772  0.51444081  0.07504912     0.04800
C1229       C  0.25621502  0.52441403  0.13093747     0.27300
C1230       C  0.25131875  0.51411137  0.15315720    -0.13200
C1231       C  0.26028910  0.52451755  0.17411663     0.05400
C1232       C  0.27425961  0.54522201  0.17294557    -0.09100
C1233       C  0.27939800  0.55528130  0.15071931     0.06200
C1234       C  0.27044932  0.54492093  0.12980430    -0.13500
Br1235     Br  0.20590229  0.54336967  0.11583059    -0.05600
Br1236     Br  0.27190517  0.46296479  0.05927699     0.00000
Br1237     Br  0.25275614  0.51094635  0.20452209     0.00500
Br1238     Br  0.27732861  0.55904879  0.09947369    -0.03900
Br1239     Br  0.19022839  0.52593392  0.06167620     0.00600
Br1240     Br  0.28912128  0.48406196  0.11138321    -0.03200
Br1241     Br  0.23188671  0.48608158  0.15478558    -0.04100
Br1242     Br  0.29845879  0.58358247  0.14905858    -0.00100
C1243       C  0.17942003  0.29996905  0.01723802     0.01300
C1244       C  0.19429922  0.30929443  0.03508417     0.04100
C1245       C  0.20377093  0.33224538  0.03275573    -0.11900
C1246       C  0.19848705  0.34593651  0.01259736     0.23400
C1247       C  0.18320702  0.33683800  0.99503023    -0.12500
C1248       C  0.17367842  0.31390703  0.99737700     0.04800
C1249       C  0.20771440  0.37051215  0.01068444     0.27300
C1250       C  0.19469169  0.38925538  0.02080367    -0.13200
C1251       C  0.20284702  0.41266219  0.01876892     0.05400
C1252       C  0.22347017  0.41778235  0.00528925    -0.09100
C1253       C  0.23763982  0.39871783  0.99697386     0.06200
C1254       C  0.22959305  0.37513234  0.99948975    -0.13500
Br1255     Br  0.17549651  0.35582074  0.96771941    -0.05600
Br1256     Br  0.20258675  0.29036826  0.06228543     0.00000
Br1257     Br  0.18636808  0.43740215  0.03614166     0.00500
Br1258     Br  0.24813671  0.34901121  0.98720180    -0.03900
Br1259     Br  0.15255046  0.30150314  0.97351122     0.00600
Br1260     Br  0.22424766  0.34501266  0.05701523    -0.03200
Br1261     Br  0.16522694  0.38275646  0.03704532    -0.04100
Br1262     Br  0.26807944  0.40435868  0.98255991    -0.00100
C1263       C  0.23343826  0.56050859  0.97391630     0.01300
C1264       C  0.21641868  0.57563904  0.98474784     0.04100
C1265       C  0.21181563  0.59830282  0.97546365    -0.11900
C1266       C  0.22467134  0.60646373  0.95577845     0.23400
C1267       C  0.24296288  0.59232591  0.94608456    -0.12500
C1268       C  0.24722872  0.56930579  0.95491688     0.04800
C1269       C  0.21850986  0.62969677  0.94495598     0.27300
C1270       C  0.20043021  0.63108803  0.92774366    -0.13200
C1271       C  0.19450638  0.65309511  0.91751814     0.05400
C1272       C  0.20724248  0.67364520  0.92378917    -0.09100
C1273       C  0.22529590  0.67221560  0.94111318     0.06200
C1274       C  0.23049792  0.65040229  0.95204037    -0.13500
Br1275     Br  0.26154479  0.60438064  0.92006313    -0.05600
Br1276     Br  0.19939707  0.56574265  0.01268107     0.00000
Br1277     Br  0.16951125  0.65498149  0.89429618     0.00500
Br1278     Br  0.25387221  0.64875512  0.97695017    -0.03900
Br1279     Br  0.27068111  0.54951743  0.93952296     0.00600
Br1280     Br  0.18732571  0.61808792  0.98921974    -0.03200
Br1281     Br  0.18412963  0.60266155  0.91792745    -0.04100
Br1282     Br  0.24291100  0.70011099  0.95015403    -0.00100
C1283       C  0.40753022  0.26980989  0.81163328     0.01300
C1284       C  0.40098940  0.28190033  0.83257213     0.04100
C1285       C  0.41097119  0.27526654  0.85448385    -0.11900
C1286       C  0.42725543  0.25625449  0.85561538     0.23400
C1287       C  0.43370943  0.24407077  0.83473387    -0.12500
C1288       C  0.42415456  0.25101398  0.81276529     0.04800
C1289       C  0.43886732  0.25019877  0.87849327     0.27300
C1290       C  0.46015880  0.26148204  0.88477222    -0.13200
C1291       C  0.47062780  0.25710737  0.90695359     0.05400
C1292       C  0.45961031  0.24160664  0.92337834    -0.09100
C1293       C  0.43902417  0.22908780  0.91632730     0.06200
C1294       C  0.42868470  0.23350250  0.89396790    -0.13500
Br1295     Br  0.45578019  0.21789264  0.83639444    -0.05600
Br1296     Br  0.37778313  0.30705202  0.83130012     0.00000
Br1297     Br  0.50041175  0.27240385  0.91434817     0.00500
Br1298     Br  0.39999415  0.21740979  0.88469130    -0.03900
Br1299     Br  0.43477300  0.23536165  0.78413556     0.00600
Br1300     Br  0.40246071  0.29220188  0.88305900    -0.03200
Br1301     Br  0.47454815  0.28361473  0.86302248    -0.04100
Br1302     Br  0.42383295  0.20696562  0.93747630    -0.00100
C1303       C  0.47059646  0.05974211  0.72477235     0.01300
C1304       C  0.48117006  0.07385129  0.70698776     0.04100
C1305       C  0.47186367  0.09639052  0.70184696    -0.11900
C1306       C  0.45191033  0.10487425  0.71427058     0.23400
C1307       C  0.44161915  0.09111053  0.73233701    -0.12500
C1308       C  0.45101713  0.06861993  0.73771435     0.04800
C1309       C  0.44152681  0.12814900  0.70797678     0.27300
C1310       C  0.45066765  0.14907641  0.71811302    -0.13200
C1311       C  0.44068835  0.17115627  0.71221030     0.05400
C1312       C  0.42136521  0.17226397  0.69640812    -0.09100
C1313       C  0.41262877  0.15141164  0.68584781     0.06200
C1314       C  0.42272760  0.12934667  0.69157791    -0.13500
Br1315     Br  0.41415528  0.10289550  0.74915675    -0.05600
Br1316     Br  0.50868273  0.06265968  0.68972742     0.00000
Br1317     Br  0.45322667  0.19984605  0.72602685     0.00500
Br1318     Br  0.41057500  0.10066760  0.67738492    -0.03900
Br1319     Br  0.43596730  0.04952605  0.76174917     0.00600
Br1320     Br  0.48606667  0.11563510  0.67741713    -0.03200
Br1321     Br  0.47645682  0.14727935  0.74050858    -0.04100
Br1322     Br  0.38656906  0.15320294  0.66381447    -0.00100
C1323       C  0.56168754  0.01359604  0.72754302     0.01300
C1324       C  0.56730588  0.03517194  0.73903537     0.04100
C1325       C  0.59103468  0.04077115  0.74412887    -0.11900
C1326       C  0.60922519  0.02479897  0.73785994     0.23400
C1327       C  0.60385829  0.00428637  0.72452552    -0.12500
C1328       C  0.58007824  0.99872576  0.71924376     0.04800
C1329       C  0.63341970  0.02823653  0.74759576     0.27300
C1330       C  0.65072492  0.04071872  0.73468848    -0.13200
C1331       C  0.67364081  0.04368118  0.74416215     0.05400
C1332       C  0.67931671  0.03394090  0.76645674    -0.09100
C1333       C  0.66200971  0.02142718  0.77930399     0.06200
C1334       C  0.63899830  0.01891172  0.77008015    -0.13500
Br1335     Br  0.62904345  0.98305870  0.71501140    -0.05600
Br1336     Br  0.54236607  0.05674766  0.74861574     0.00000
Br1337     Br  0.69756803  0.06011611  0.72614517     0.00500
Br1338     Br  0.61502328  0.00259324  0.78818915    -0.03900
Br1339     Br  0.57265661  0.96969001  0.70266619     0.00600
Br1340     Br  0.59864421  0.06956939  0.76107619    -0.03200
Br1341     Br  0.64299887  0.05334286  0.70392850    -0.04100
Br1342     Br  0.67004053  0.00732782  0.80936931    -0.00100
C1343       C  0.42284097  0.97150725  0.74250035     0.01300
C1344       C  0.41740760  0.95281564  0.75814480     0.04100
C1345       C  0.39399954  0.94955550  0.76616745    -0.11900
C1346       C  0.37587673  0.96510296  0.75881431     0.23400
C1347       C  0.38109807  0.98334664  0.74257689    -0.12500
C1348       C  0.40449628  0.98640665  0.73423777     0.04800
C1349       C  0.35129052  0.96196933  0.76793010     0.27300
C1350       C  0.33479225  0.94872389  0.75467582    -0.13200
C1351       C  0.31152014  0.94570961  0.76317327     0.05400
C1352       C  0.30441325  0.95639493  0.78473938    -0.09100
C1353       C  0.32108142  0.96904248  0.79835832     0.06200
C1354       C  0.34450430  0.97180646  0.78999457    -0.13500
Br1355     Br  0.35626479  0.00464303  0.73251237    -0.05600
Br1356     Br  0.44215885  0.93152961  0.76852059     0.00000
Br1357     Br  0.28938547  0.92668453  0.74530934     0.00500
Br1358     Br  0.36717219  0.98963858  0.80835359    -0.03900
Br1359     Br  0.41157382  0.01181002  0.71254322     0.00600
Br1360     Br  0.38671526  0.92404241  0.78765064    -0.03200
Br1361     Br  0.34403209  0.93519760  0.72454906    -0.04100
Br1362     Br  0.31151713  0.98315302  0.82807862    -0.00100
C1363       C  0.75089051  0.96469880  0.42526404     0.01300
C1364       C  0.77058665  0.94977037  0.42033790     0.04100
C1365       C  0.77740384  0.94513228  0.39678345    -0.11900
C1366       C  0.76400593  0.95435786  0.37794333     0.23400
C1367       C  0.74343539  0.96785664  0.38271134    -0.12500
C1368       C  0.73704260  0.97334772  0.40630276     0.04800
C1369       C  0.77204799  0.95057175  0.35311073     0.27300
C1370       C  0.78711490  0.96725624  0.34232018    -0.13200
C1371       C  0.79396049  0.96431854  0.31848553     0.05400
C1372       C  0.78596557  0.94455264  0.30535311    -0.09100
C1373       C  0.77139492  0.92749483  0.31638054     0.06200
C1374       C  0.76454221  0.93048096  0.34025752    -0.13500
Br1375     Br  0.72456581  0.97946296  0.35669681    -0.05600
Br1376     Br  0.78823265  0.93506299  0.44576762     0.00000
Br1377     Br  0.81436658  0.98744607  0.30377928     0.00500
Br1378     Br  0.74442193  0.90741463  0.35539822    -0.03900
Br1379     Br  0.71051004  0.99424563  0.41224897     0.00600
Br1380     Br  0.80569395  0.92686168  0.39017409    -0.03200
Br1381     Br  0.79815839  0.99427585  0.36025299    -0.04100
Br1382     Br  0.75941062  0.90091097  0.29845695    -0.00100
C1383       C  0.74234855  0.01150881  0.56311680     0.01300
C1384       C  0.75973342  0.02889989  0.56797626     0.04100
C1385       C  0.76856254  0.03162076  0.59102029    -0.11900
C1386       C  0.75821508  0.01894883  0.60975398     0.23400
C1387       C  0.73823449  0.00451978  0.60550661    -0.12500
C1388       C  0.73070977  0.00017078  0.58206577     0.04800
C1389       C  0.76968944  0.01913362  0.63335531     0.27300
C1390       C  0.78403815  0.99980035  0.64012145    -0.13200
C1391       C  0.79446227  0.99943197  0.66272504     0.05400
C1392       C  0.79159916  0.01890457  0.67820238    -0.09100
C1393       C  0.77800582  0.03872188  0.67102600     0.06200
C1394       C  0.76679703  0.03865557  0.64874631    -0.13500
Br1395     Br  0.72237978  0.98953954  0.63177742    -0.05600
Br1396     Br  0.77221543  0.04848806  0.54280682     0.00000
Br1397     Br  0.81225001  0.97196258  0.67275463     0.00500
Br1398     Br  0.74682294  0.06489572  0.63947614    -0.03900
Br1399     Br  0.70633060  0.97701858  0.57605848     0.00600
Br1400     Br  0.79641132  0.05075902  0.59644384    -0.03200
Br1401     Br  0.78946240  0.97383926  0.61830282    -0.04100
Br1402     Br  0.77333514  0.06537144  0.69213247    -0.00100
C1403       C  0.69289745  0.16918758  0.43518639     0.01300
C1404       C  0.68760866  0.14745490  0.42406554     0.04100
C1405       C  0.69607134  0.12607961  0.43368837    -0.11900
C1406       C  0.71030984  0.12641254  0.45422145     0.23400
C1407       C  0.71480317  0.14808504  0.46592701    -0.12500
C1408       C  0.70586780  0.16943280  0.45655808     0.04800
C1409       C  0.71993632  0.10378729  0.46364232     0.27300
C1410       C  0.70803190  0.09224684  0.48219986    -0.13200
C1411       C  0.71544272  0.06959928  0.48944517     0.05400
C1412       C  0.73420614  0.05783420  0.47744158    -0.09100
C1413       C  0.74705999  0.07001757  0.45981906     0.06200
C1414       C  0.73998672  0.09303896  0.45304950    -0.13500
Br1415     Br  0.73384066  0.14852243  0.49432458    -0.05600
Br1416     Br  0.66904491  0.14714764  0.39537245     0.00000
Br1417     Br  0.70003663  0.05510184  0.51636893     0.00500
Br1418     Br  0.75704347  0.10957440  0.42851287    -0.03900
Br1419     Br  0.71218112  0.19910669  0.47247691     0.00600
Br1420     Br  0.68845013  0.09627364  0.41860269    -0.03200
Br1421     Br  0.68070665  0.10704426  0.49683789    -0.04100
Br1422     Br  0.77328013  0.05479403  0.44378755    -0.00100
C1423       C  0.80681609  0.26755803  0.43024833     0.01300
C1424       C  0.80790779  0.25023612  0.44824788     0.04100
C1425       C  0.82999776  0.24308949  0.45748989    -0.11900
C1426       C  0.85108994  0.25321337  0.44880872     0.23400
C1427       C  0.84999482  0.27059998  0.43092385    -0.12500
C1428       C  0.82791135  0.27774122  0.42166687     0.04800
C1429       C  0.87439949  0.24644284  0.45915493     0.27300
C1430       C  0.88377858  0.25990920  0.47795289    -0.13200
C1431       C  0.90645253  0.25469618  0.48689270     0.05400
C1432       C  0.92043796  0.23654577  0.47640784    -0.09100
C1433       C  0.91062369  0.22240530  0.45818630     0.06200
C1434       C  0.88751321  0.22720229  0.44980298    -0.13500
Br1435     Br  0.87889885  0.28431644  0.41890262    -0.05600
Br1436     Br  0.77910320  0.23635646  0.46037975     0.00000
Br1437     Br  0.91797070  0.27230740  0.51402243     0.00500
Br1438     Br  0.87396155  0.20800867  0.42493299    -0.03900
Br1439     Br  0.82654316  0.30076660  0.39651969     0.00600
Br1440     Br  0.83154060  0.21925740  0.48189504    -0.03200
Br1441     Br  0.86573241  0.28612535  0.49088615    -0.04100
Br1442     Br  0.92925072  0.19766354  0.44342159    -0.00100
C1443       C  0.28020563  0.46925532  0.79796228     0.01300
C1444       C  0.29461436  0.47738518  0.81669253     0.04100
C1445       C  0.28518267  0.47955636  0.83979950    -0.11900
C1446       C  0.26123744  0.47377790  0.84426116     0.23400
C1447       C  0.24690733  0.46545184  0.82559326    -0.12500
C1448       C  0.25640367  0.46285514  0.80261747     0.04800
C1449       C  0.25156911  0.47486137  0.86886177     0.27300
C1450       C  0.25517607  0.45557452  0.88421437    -0.13200
C1451       C  0.24701115  0.45672723  0.90777240     0.05400
C1452       C  0.23559602  0.47732426  0.91643098    -0.09100
C1453       C  0.23072937  0.49610801  0.90067198     0.06200
C1454       C  0.23870588  0.49486203  0.87692157    -0.13500
Br1455     Br  0.21418926  0.45750340  0.83165625    -0.05600
Br1456     Br  0.32709193  0.48609301  0.81053982     0.00000
Br1457     Br  0.25109163  0.42978104  0.92816151     0.00500
Br1458     Br  0.23287523  0.52085819  0.85558688    -0.03900
Br1459     Br  0.23693695  0.44930294  0.77787333     0.00600
Br1460     Br  0.30496920  0.49053875  0.86543992    -0.03200
Br1461     Br  0.27202972  0.42780861  0.87305890    -0.04100
Br1462     Br  0.21431968  0.52405349  0.91188878    -0.00100
C1463       C  0.05702561  0.46531827  0.74123943     0.01300
C1464       C  0.06175895  0.44636529  0.72536569     0.04100
C1465       C  0.08525230  0.44060639  0.71914362    -0.11900
C1466       C  0.10422432  0.45330635  0.72913941     0.23400
C1467       C  0.09970107  0.47087033  0.74645281    -0.12500
C1468       C  0.07614436  0.47714439  0.75227336     0.04800
C1469       C  0.12847128  0.45040440  0.71912546     0.27300
C1470       C  0.14397764  0.43275166  0.72763851    -0.13200
C1471       C  0.16689128  0.43029339  0.71783029     0.05400
C1472       C  0.17449012  0.44583401  0.69976436    -0.09100
C1473       C  0.15883021  0.46335395  0.69119146     0.06200
C1474       C  0.13583352  0.46544856  0.70065028    -0.13500
Br1475     Br  0.12595643  0.48728774  0.76096055    -0.05600
Br1476     Br  0.03604143  0.42855241  0.71141867     0.00000
Br1477     Br  0.18824956  0.40663463  0.73029497     0.00500
Br1478     Br  0.11435200  0.48923122  0.68854880    -0.03900
Br1479     Br  0.07034290  0.50368085  0.77322558     0.00600
Br1480     Br  0.09152287  0.41643866  0.69557838    -0.03200
Br1481     Br  0.13401454  0.41263124  0.75333457    -0.04100
Br1482     Br  0.16890466  0.48465029  0.66644442    -0.00100
C1483       C  0.96405869  0.42273219  0.74534182     0.01300
C1484       C  0.94193003  0.41596176  0.73580152     0.04100
C1485       C  0.93341243  0.39262521  0.73907957    -0.11900
C1486       C  0.94690248  0.37600842  0.75201977     0.23400
C1487       C  0.96925559  0.38261421  0.76098769    -0.12500
C1488       C  0.97776980  0.40583308  0.75774689     0.04800
C1489       C  0.93775268  0.35169086  0.75700822     0.27300
C1490       C  0.92576283  0.34713801  0.77846012    -0.13200
C1491       C  0.92178220  0.32358139  0.78587721     0.05400
C1492       C  0.92893088  0.30432350  0.77135984    -0.09100
C1493       C  0.93870131  0.30912207  0.74867369     0.06200
C1494       C  0.94365954  0.33265128  0.74187209    -0.13500
Br1495     Br  0.98811435  0.35970258  0.77807180    -0.05600
Br1496     Br  0.92257000  0.43909447  0.71970405     0.00000
Br1497     Br  0.90869864  0.31807375  0.81698172     0.00500
Br1498     Br  0.95985099  0.33890125  0.71238164    -0.03900
Br1499     Br  0.00846846  0.41431506  0.77028063     0.00600
Br1500     Br  0.90310068  0.38343496  0.72632559    -0.03200
Br1501     Br  0.91604332  0.37340066  0.79828135    -0.04100
Br1502     Br  0.94492124  0.28370464  0.72637048    -0.00100
C1503       C  0.01533850  0.56004441  0.74562536     0.01300
C1504       C  0.03771869  0.56514108  0.73563598     0.04100
C1505       C  0.04842703  0.58737474  0.73974206    -0.11900
C1506       C  0.03677433  0.60467758  0.75368269     0.23400
C1507       C  0.01401679  0.59996309  0.76282670    -0.12500
C1508       C  0.00340190  0.57768846  0.75899420     0.04800
C1509       C  0.04878671  0.62742341  0.75974417     0.27300
C1510       C  0.06343514  0.62884072  0.77995444    -0.13200
C1511       C  0.07406738  0.65055449  0.78636658     0.05400
C1512       C  0.07012089  0.67100562  0.77261275    -0.09100
C1513       C  0.05557355  0.66951006  0.75223784     0.06200
C1514       C  0.04495745  0.64778755  0.74586440    -0.13500
Br1515     Br  0.99770913  0.62397683  0.78117747    -0.05600
Br1516     Br  0.05460177  0.54108200  0.71788094     0.00000
Br1517     Br  0.09474942  0.65210748  0.81351620     0.00500
Br1518     Br  0.02502822  0.64578980  0.71814504    -0.03900
Br1519     Br  0.97244634  0.57143178  0.77223278     0.00600
Br1520     Br  0.07948221  0.59394485  0.72704815    -0.03200
Br1521     Br  0.06893588  0.60085201  0.79875713    -0.04100
Br1522     Br  0.04955796  0.69732476  0.73325863    -0.00100
C1523       C  0.97233144  0.73830309  0.41932876     0.01300
C1524       C  0.98759777  0.72803549  0.40222507     0.04100
C1525       C  0.98411729  0.73278806  0.37793834    -0.11900
C1526       C  0.96551234  0.74785801  0.37068378     0.23400
C1527       C  0.94918380  0.75651656  0.38753830    -0.12500
C1528       C  0.95258134  0.75181714  0.41177577     0.04800
C1529       C  0.96457957  0.75672193  0.34589196     0.27300
C1530       C  0.97872833  0.77623350  0.33932515    -0.13200
C1531       C  0.97806953  0.78484452  0.31593806     0.05400
C1532       C  0.96241553  0.77478766  0.29930202    -0.09100
C1533       C  0.94804679  0.75544393  0.30593404     0.06200
C1534       C  0.94940929  0.74618369  0.32907564    -0.13500
Br1535     Br  0.92287765  0.77597620  0.37741945    -0.05600
Br1536     Br  0.01469885  0.70949616  0.41195987     0.00000
Br1537     Br  0.99913119  0.80995977  0.30641524     0.00500
Br1538     Br  0.93096327  0.71878313  0.33771974    -0.03900
Br1539     Br  0.93040291  0.76463335  0.43465262     0.00600
Br1540     Br  0.00555063  0.71980116  0.35453255    -0.03200
Br1541     Br  0.99898153  0.79119492  0.36251780    -0.04100
Br1542     Br  0.92690322  0.74128593  0.28312212    -0.00100
C1543       C  0.01397913  0.74857568  0.55975578     0.01300
C1544       C  0.01172003  0.77126337  0.57093031     0.04100
C1545       C  0.02331152  0.77599082  0.59249949    -0.11900
C1546       C  0.03569090  0.75792919  0.60425074     0.23400
C1547       C  0.03617401  0.73487705  0.59467287    -0.12500
C1548       C  0.02573827  0.73014460  0.57240183     0.04800
C1549       C  0.04789162  0.76339004  0.62694753     0.27300
C1550       C  0.07198655  0.76994968  0.62691373    -0.13200
C1551       C  0.08306076  0.77690610  0.64818722     0.05400
C1552       C  0.07004285  0.77746731  0.66957030    -0.09100
C1553       C  0.04607038  0.77023540  0.66966237     0.06200
C1554       C  0.03504503  0.76326582  0.64837748    -0.13500
Br1555     Br  0.05144509  0.70986812  0.61235826    -0.05600
Br1556     Br  0.99173823  0.79624551  0.55836279     0.00000
Br1557     Br  0.11605614  0.78590912  0.64799245     0.00500
Br1558     Br  0.00237523  0.75313908  0.64843745    -0.03900
Br1559     Br  0.02835265  0.69820396  0.56005108     0.00600
Br1560     Br  0.02269272  0.80757304  0.60610067    -0.03200
Br1561     Br  0.08972320  0.76933352  0.59762545    -0.04100
Br1562     Br  0.02859834  0.76837593  0.69904893    -0.00100
C1563       C  0.06212704  0.74220575  0.46839570     0.01300
C1564       C  0.06878215  0.75038701  0.44573685     0.04100
C1565       C  0.09120073  0.74426913  0.43630222    -0.11900
C1566       C  0.10682622  0.72966286  0.44929774     0.23400
C1567       C  0.10058533  0.72247139  0.47233987    -0.12500
C1568       C  0.07863929  0.72932783  0.48209352     0.04800
C1569       C  0.12980862  0.72181985  0.43879648     0.27300
C1570       C  0.13067352  0.70205452  0.42337371    -0.13200
C1571       C  0.15231836  0.69519227  0.41276867     0.05400
C1572       C  0.17326817  0.70774390  0.41792875    -0.09100
C1573       C  0.17255665  0.72681452  0.43424736     0.06200
C1574       C  0.15087007  0.73394441  0.44448478    -0.13500
Br1575     Br  0.12158426  0.70206132  0.49001734    -0.05600
Br1576     Br  0.04677831  0.76866597  0.42700279     0.00000
Br1577     Br  0.15315999  0.66924163  0.39040721     0.00500
Br1578     Br  0.14985978  0.76050623  0.46618107    -0.03900
Br1579     Br  0.07132684  0.72147867  0.51455593     0.00600
Br1580     Br  0.10022521  0.75498769  0.40515014    -0.03200
Br1581     Br  0.10212110  0.68444514  0.41685079    -0.04100
Br1582     Br  0.20138701  0.74299797  0.44294769    -0.00100
C1583       C  0.28427353  0.81031947  0.41536353     0.01300
C1584       C  0.29271536  0.83197647  0.40651003     0.04100
C1585       C  0.28642179  0.85333836  0.41782311    -0.11900
C1586       C  0.27172999  0.85301156  0.43807892     0.23400
C1587       C  0.26398407  0.83126391  0.44746032    -0.12500
C1588       C  0.27020102  0.80990482  0.43605976     0.04800
C1589       C  0.26504293  0.87564062  0.44973258     0.27300
C1590       C  0.28098649  0.88642555  0.46544434    -0.13200
C1591       C  0.27644355  0.90939505  0.47406855     0.05400
C1592       C  0.25538594  0.92169733  0.46731291    -0.09100
C1593       C  0.23821773  0.90954910  0.45352517     0.06200
C1594       C  0.24340421  0.88683678  0.44427496    -0.13500
Br1595     Br  0.24473405  0.83090276  0.47577308    -0.05600
Br1596     Br  0.31249851  0.83225990  0.37858751     0.00000
Br1597     Br  0.29949529  0.92304112  0.49561504     0.00500
Br1598     Br  0.22138533  0.87123049  0.42320524    -0.03900
Br1599     Br  0.25916361  0.78010520  0.44856454     0.00600
Br1600     Br  0.29755394  0.88314159  0.40538829    -0.03200
Br1601     Br  0.30948122  0.86961086  0.47459346    -0.04100
Br1602     Br  0.20774519  0.92351062  0.44651420    -0.00100
C1603       C  0.80771008  0.53684875  0.68878839     0.01300
C1604       C  0.82625341  0.52320564  0.67898772     0.04100
C1605       C  0.84821432  0.52167890  0.69073232    -0.11900
C1606       C  0.85170581  0.53369623  0.71245701     0.23400
C1607       C  0.83333767  0.54779889  0.72201581    -0.12500
C1608       C  0.81140042  0.54942842  0.71017118     0.04800
C1609       C  0.87486745  0.53134462  0.72486026     0.27300
C1610       C  0.87811372  0.51389291  0.74243942    -0.13200
C1611       C  0.90115667  0.50820062  0.75041024     0.05400
C1612       C  0.92098633  0.51974759  0.74050631    -0.09100
C1613       C  0.91737899  0.53891604  0.72479672     0.06200
C1614       C  0.89439108  0.54468966  0.71704009    -0.13500
Br1615     Br  0.83802029  0.56414652  0.75173120    -0.05600
Br1616     Br  0.82120895  0.50600635  0.64980599     0.00000
Br1617     Br  0.90554314  0.48319409  0.77322195     0.00500
Br1618     Br  0.88964621  0.56982581  0.69437566    -0.03900
Br1619     Br  0.78596991  0.56798584  0.72384007     0.00600
Br1620     Br  0.87334726  0.50236103  0.67753210    -0.03200
Br1621     Br  0.85110318  0.49662844  0.75422036    -0.04100
Br1622     Br  0.94404996  0.55693341  0.71321029    -0.00100
C1623       C  0.73650378  0.50491805  0.91867782     0.01300
C1624       C  0.72687504  0.52702520  0.91197409     0.04100
C1625       C  0.72190124  0.53172863  0.88800794    -0.11900
C1626       C  0.72592174  0.51413141  0.87065176     0.23400
C1627       C  0.73632261  0.49231270  0.87721412    -0.12500
C1628       C  0.74188335  0.48783064  0.90116771     0.04800
C1629       C  0.71872261  0.51843705  0.84563040     0.27300
C1630       C  0.69520041  0.51402306  0.83836001    -0.13200
C1631       C  0.68852021  0.51755248  0.81453755     0.05400
C1632       C  0.70523112  0.52583845  0.79792101    -0.09100
C1633       C  0.72860115  0.53091108  0.80541074     0.06200
C1634       C  0.73530443  0.52717191  0.82917090    -0.13500
Br1635     Br  0.74187894  0.46820427  0.85348342    -0.05600
Br1636     Br  0.71991406  0.55071818  0.93583001     0.00000
Br1637     Br  0.65680086  0.50987355  0.80438812     0.00500
Br1638     Br  0.76720483  0.53408249  0.83939143    -0.03900
Br1639     Br  0.75552316  0.45779962  0.91022825     0.00600
Br1640     Br  0.70889824  0.56204271  0.87892341    -0.03200
Br1641     Br  0.67221280  0.50297400  0.86112329    -0.04100
Br1642     Br  0.75141892  0.54352637  0.78329335    -0.00100
C1643       C  0.78195500  0.66560267  0.05965474     0.01300
C1644       C  0.77254106  0.66736689  0.03654188     0.04100
C1645       C  0.76293370  0.64719716  0.02534766    -0.11900
C1646       C  0.76342843  0.62505266  0.03685818     0.23400
C1647       C  0.77346964  0.62318062  0.05967292    -0.12500
C1648       C  0.78240617  0.64346782  0.07114651     0.04800
C1649       C  0.75436924  0.60347960  0.02467416     0.27300
C1650       C  0.73241230  0.59350063  0.03122923    -0.13200
C1651       C  0.72557566  0.57118301  0.02211606     0.05400
C1652       C  0.74034272  0.55925207  0.00561383    -0.09100
C1653       C  0.76094399  0.57079984  0.99707170     0.06200
C1654       C  0.76834070  0.59233701  0.00719200    -0.13500
Br1655     Br  0.77486510  0.59278724  0.07527070    -0.05600
Br1656     Br  0.77171425  0.69754642  0.02054152     0.00000
Br1657     Br  0.69696639  0.55658060  0.03377741     0.00500
Br1658     Br  0.79841068  0.60594275  0.99805700    -0.03900
Br1659     Br  0.79535726  0.64101802  0.10271039     0.00600
Br1660     Br  0.74829424  0.64994121  0.99456036    -0.03200
Br1661     Br  0.71222020  0.61019619  0.05339557    -0.04100
Br1662     Br  0.77919178  0.55747397  0.97112587    -0.00100
C1663       C  0.73429719  0.41621551  0.97576578     0.01300
C1664       C  0.74857667  0.40211375  0.99079836     0.04100
C1665       C  0.75407069  0.37857802  0.98453157    -0.11900
C1666       C  0.74541079  0.36891172  0.96319582     0.23400
C1667       C  0.73030648  0.38256484  0.94867381    -0.12500
C1668       C  0.72443349  0.40606682  0.95513634     0.04800
C1669       C  0.75126853  0.34393370  0.95687830     0.27300
C1670       C  0.77356298  0.33804920  0.94706202    -0.13200
C1671       C  0.77998605  0.31405819  0.94364757     0.05400
C1672       C  0.76383856  0.29584506  0.94947786    -0.09100
C1673       C  0.74085037  0.30201405  0.95766863     0.06200
C1674       C  0.73494554  0.32587503  0.96208251    -0.13500
Br1675     Br  0.71836896  0.36921350  0.91952618    -0.05600
Br1676     Br  0.76037576  0.41480064  0.02041495     0.00000
Br1677     Br  0.81144903  0.30638568  0.93242822     0.00500
Br1678     Br  0.70483926  0.33388049  0.97648923    -0.03900
Br1679     Br  0.70366727  0.42450519  0.93523268     0.00600
Br1680     Br  0.77373463  0.35951886  0.00508406    -0.03200
Br1681     Br  0.79560800  0.36296379  0.93925737    -0.04100
Br1682     Br  0.71666007  0.27815128  0.96181285    -0.00100
C1683       C  0.56551616  0.73995169  0.01043143     0.01300
C1684       C  0.57278627  0.72488840  0.02908826     0.04100
C1685       C  0.59556880  0.72743348  0.03910805    -0.11900
C1686       C  0.61133840  0.74461907  0.03025457     0.23400
C1687       C  0.60479599  0.75835688  0.01054111    -0.12500
C1688       C  0.58190608  0.75634770  0.00086381     0.04800
C1689       C  0.63383276  0.75010241  0.04289609     0.27300
C1690       C  0.63443088  0.76919553  0.05912876    -0.13200
C1691       C  0.65600129  0.77604514  0.06966014     0.05400
C1692       C  0.67700229  0.76340924  0.06458040    -0.09100
C1693       C  0.67627007  0.74380760  0.04884942     0.06200
C1694       C  0.65478509  0.73738855  0.03780173    -0.13500
Br1695     Br  0.62714184  0.78068846  0.99745638    -0.05600
Br1696     Br  0.55102427  0.70226150  0.04263139     0.00000
Br1697     Br  0.65668264  0.80238324  0.09155921     0.00500
Br1698     Br  0.65396622  0.71140174  0.01545162    -0.03900
Br1699     Br  0.57318939  0.77664502  0.97471441     0.00600
Br1700     Br  0.60480387  0.70840602  0.06591437    -0.03200
Br1701     Br  0.60545920  0.78578060  0.06705511    -0.04100
Br1702     Br  0.70476235  0.72594031  0.04200232    -0.00100
C1703       C  0.30898909  0.78624201  0.93652845     0.01300
C1704       C  0.31037064  0.76885946  0.95439356     0.04100
C1705       C  0.33255921  0.76220043  0.96369649    -0.11900
C1706       C  0.35340477  0.77291221  0.95512542     0.23400
C1707       C  0.35184547  0.79137542  0.93838953    -0.12500
C1708       C  0.32964687  0.79803249  0.92912203     0.04800
C1709       C  0.37704885  0.76437940  0.96304795     0.27300
C1710       C  0.38737001  0.77376306  0.98372422    -0.13200
C1711       C  0.41059367  0.76720703  0.99007844     0.05400
C1712       C  0.42387111  0.75156521  0.97547974    -0.09100
C1713       C  0.41303788  0.74123633  0.95539848     0.06200
C1714       C  0.38962226  0.74757897  0.94928893    -0.13500
Br1715     Br  0.38028214  0.80694995  0.92762507    -0.05600
Br1716     Br  0.28184689  0.75390340  0.96577041     0.00000
Br1717     Br  0.42393689  0.77941700  0.01920000     0.00500
Br1718     Br  0.37484722  0.73390209  0.92159948    -0.03900
Br1719     Br  0.32751276  0.82257684  0.90551075     0.00600
Br1720     Br  0.33458318  0.73791386  0.98760589    -0.03200
Br1721     Br  0.36981532  0.79619282  0.00290226    -0.04100
Br1722     Br  0.43061270  0.71970692  0.93526484    -0.00100
C1723       C  0.72593443  0.47019833  0.05964009     0.01300
C1724       C  0.71054220  0.45103289  0.06432592     0.04100
C1725       C  0.70357141  0.44605614  0.08767802    -0.11900
C1726       C  0.71182813  0.46021967  0.10649866     0.23400
C1727       C  0.72769825  0.47898959  0.10199219    -0.12500
C1728       C  0.73481462  0.48395189  0.07855880     0.04800
C1729       C  0.70292844  0.45582659  0.13084136     0.27300
C1730       C  0.68363434  0.46912286  0.13971181    -0.13200
C1731       C  0.67514383  0.46498990  0.16277910     0.05400
C1732       C  0.68553112  0.44720351  0.17687088    -0.09100
C1733       C  0.70431812  0.43333976  0.16767474     0.06200
C1734       C  0.71316577  0.43783514  0.14477991    -0.13500
Br1735     Br  0.73876225  0.49847446  0.12787959    -0.05600
Br1736     Br  0.69852125  0.43164430  0.03870516     0.00000
Br1737     Br  0.64962368  0.48410664  0.17543743     0.00500
Br1738     Br  0.73995091  0.42009419  0.13273066    -0.03900
Br1739     Br  0.75510320  0.51070366  0.07223134     0.00600
Br1740     Br  0.68183083  0.42039919  0.09390365    -0.03200
Br1741     Br  0.66922544  0.49335841  0.12037208    -0.04100
Br1742     Br  0.71891317  0.40915371  0.18690816    -0.00100
C1743       C  0.80219961  0.45341203  0.28115261     0.01300
C1744       C  0.81424492  0.47515685  0.28417459     0.04100
C1745       C  0.83813471  0.47734986  0.27716936    -0.11900
C1746       C  0.85020278  0.45788160  0.26700067     0.23400
C1747       C  0.83822040  0.43619463  0.26379536    -0.12500
C1748       C  0.81427749  0.43395525  0.27077348     0.04800
C1749       C  0.87594317  0.45989196  0.26127417     0.27300
C1750       C  0.88353841  0.46906362  0.23937303    -0.13200
C1751       C  0.90793236  0.47281409  0.23491048     0.05400
C1752       C  0.92502851  0.46796139  0.25280193    -0.09100
C1753       C  0.91711753  0.45720989  0.27426629     0.06200
C1754       C  0.89278885  0.45337479  0.27835587    -0.13500
Br1755     Br  0.85481662  0.40960789  0.24982480    -0.05600
Br1756     Br  0.79828017  0.50188048  0.29865891     0.00000
Br1757     Br  0.91695430  0.48518172  0.20429468     0.00500
Br1758     Br  0.88212845  0.43965114  0.30788774    -0.03900
Br1759     Br  0.79783005  0.40456639  0.26489999     0.00600
Br1760     Br  0.85461643  0.50698014  0.28179268    -0.03200
Br1761     Br  0.86011860  0.47713289  0.21578956    -0.04100
Br1762     Br  0.93891985  0.44674131  0.29860484    -0.00100
C1763       C  0.46154244  0.71184226  0.18402178     0.01300
C1764       C  0.44720766  0.72966742  0.17391514     0.04100
C1765       C  0.45038199  0.73608910  0.15000887    -0.11900
C1766       C  0.46755525  0.72433939  0.13599652     0.23400
C1767       C  0.48183865  0.70647298  0.14616482    -0.12500
C1768       C  0.47910161  0.70056771  0.17023191     0.04800
C1769       C  0.47058332  0.73058912  0.11056501     0.27300
C1770       C  0.45439701  0.72201880  0.09355197    -0.13200
C1771       C  0.45799779  0.72674791  0.06933230     0.05400
C1772       C  0.47812965  0.73958720  0.06191667    -0.09100
C1773       C  0.49417607  0.74841252  0.07895855     0.06200
C1774       C  0.49015684  0.74428930  0.10324854    -0.13500
Br1775     Br  0.50516150  0.69003835  0.12708955    -0.05600
Br1776     Br  0.42350262  0.74555302  0.19297176     0.00000
Br1777     Br  0.43516193  0.71573588  0.04630596     0.00500
Br1778     Br  0.51176036  0.75694478  0.12657157    -0.03900
Br1779     Br  0.49988014  0.67754525  0.18465176     0.00600
Br1780     Br  0.43159585  0.76131106  0.13651420    -0.03200
Br1781     Br  0.42768824  0.70308028  0.10339613    -0.04100
Br1782     Br  0.52278663  0.76432854  0.06903143    -0.00100
C1783       C  0.42684762  0.81828466  0.28129939     0.01300
C1784       C  0.41719753  0.82280524  0.25866412     0.04100
C1785       C  0.42065941  0.84504919  0.24775339    -0.11900
C1786       C  0.43388600  0.86280700  0.25939029     0.23400
C1787       C  0.44225441  0.85873350  0.28259352    -0.12500
C1788       C  0.43870580  0.83658252  0.29348452     0.04800
C1789       C  0.44051098  0.88519351  0.24700445     0.27300
C1790       C  0.46117704  0.88590315  0.23287510    -0.13200
C1791       C  0.47013390  0.90781257  0.22486450     0.05400
C1792       C  0.45847864  0.92915846  0.23087447    -0.09100
C1793       C  0.43682196  0.92821022  0.24352534     0.06200
C1794       C  0.42786574  0.90631846  0.25150765    -0.13500
Br1795     Br  0.45993782  0.88309018  0.29889981    -0.05600
Br1796     Br  0.40055675  0.79798912  0.24203279     0.00000
Br1797     Br  0.49960450  0.90863558  0.20776009     0.00500
Br1798     Br  0.39903678  0.90527414  0.26992495    -0.03900
Br1799     Br  0.45118994  0.83073029  0.32473995     0.00600
Br1800     Br  0.40842651  0.85090759  0.21640928    -0.03200
Br1801     Br  0.47817828  0.85690795  0.22603586    -0.04100
Br1802     Br  0.41985131  0.95711128  0.25087194    -0.00100
C1803       C  0.57444453  0.81285504  0.70730270     0.01300
C1804       C  0.58313762  0.83525179  0.70066922     0.04100
C1805       C  0.57116281  0.85604118  0.70792968    -0.11900
C1806       C  0.55106319  0.85456078  0.72284012     0.23400
C1807       C  0.54294136  0.83213813  0.73023103    -0.12500
C1808       C  0.55413616  0.81134749  0.72187636     0.04800
C1809       C  0.53775521  0.87651859  0.72943062     0.27300
C1810       C  0.54699144  0.89251134  0.74634246    -0.13200
C1811       C  0.53638406  0.91500643  0.74963558     0.05400
C1812       C  0.51583860  0.92120571  0.73665933    -0.09100
C1813       C  0.50528509  0.90410635  0.72160529     0.06200
C1814       C  0.51650608  0.88213553  0.71756627    -0.13500
Br1815     Br  0.51667584  0.82997952  0.75208308    -0.05600
Br1816     Br  0.61163159  0.83736569  0.68186576     0.00000
Br1817     Br  0.55144889  0.93777864  0.77032280     0.00500
Br1818     Br  0.50339402  0.86020975  0.69469717    -0.03900
Br1819     Br  0.54124326  0.78073294  0.72987837     0.00600
Br1820     Br  0.58206595  0.88658411  0.69712639    -0.03200
Br1821     Br  0.57473760  0.88376405  0.76432806    -0.04100
Br1822     Br  0.47519191  0.91054500  0.70649916    -0.00100
C1823       C  0.55516289  0.71588819  0.80435481     0.01300
C1824       C  0.54485078  0.69891667  0.81958172     0.04100
C1825       C  0.53549653  0.70598878  0.84169358    -0.11900
C1826       C  0.53770870  0.72970087  0.84943575     0.23400
C1827       C  0.54775502  0.74669264  0.83429014    -0.12500
C1828       C  0.55543251  0.74007717  0.81144712     0.04800
C1829       C  0.53092187  0.73624822  0.87409698     0.27300
C1830       C  0.50967413  0.74873721  0.87883357    -0.13200
C1831       C  0.50266388  0.75317396  0.90246946     0.05400
C1832       C  0.51648033  0.74442782  0.92132680    -0.09100
C1833       C  0.53812299  0.73272769  0.91652094     0.06200
C1834       C  0.54555932  0.72911884  0.89300753    -0.13500
Br1835     Br  0.55205794  0.77887672  0.84534821    -0.05600
Br1836     Br  0.54500480  0.66563330  0.81136528     0.00000
Br1837     Br  0.47356957  0.77003638  0.90904267     0.00500
Br1838     Br  0.57572403  0.71402155  0.88661409    -0.03900
Br1839     Br  0.56478304  0.76482182  0.78977540     0.00600
Br1840     Br  0.52025372  0.68301970  0.86191033    -0.03200
Br1841     Br  0.48975626  0.75884913  0.85297452    -0.04100
Br1842     Br  0.55756774  0.72123215  0.94219372    -0.00100
C1843       C  0.81204857  0.69606676  0.55948018     0.01300
C1844       C  0.81176478  0.71427425  0.54241832     0.04100
C1845       C  0.83317300  0.72318405  0.53325818    -0.11900
C1846       C  0.85490597  0.71258925  0.53959301     0.23400
C1847       C  0.85506486  0.69321926  0.55540245    -0.12500
C1848       C  0.83371672  0.68533952  0.56573009     0.04800
C1849       C  0.87754541  0.72138538  0.52927362     0.27300
C1850       C  0.88439351  0.71423392  0.50629150    -0.13200
C1851       C  0.90683628  0.72051592  0.49736987     0.05400
C1852       C  0.92243547  0.73443703  0.51117722    -0.09100
C1853       C  0.91520405  0.74231437  0.53383982     0.06200
C1854       C  0.89275051  0.73593682  0.54279397    -0.13500
Br1855     Br  0.88463783  0.67788316  0.56328949    -0.05600
Br1856     Br  0.78192135  0.72665306  0.53126509     0.00000
Br1857     Br  0.91648981  0.70922469  0.46645182     0.00500
Br1858     Br  0.88297797  0.74650543  0.57390019    -0.03900
Br1859     Br  0.83409342  0.66029592  0.58888875     0.00600
Br1860     Br  0.83287228  0.75070389  0.51304902    -0.03200
Br1861     Br  0.86323756  0.69512666  0.48733216    -0.04100
Br1862     Br  0.93691855  0.75975658  0.55362511    -0.00100
C1863       C  0.71387773  0.80774402  0.56892894     0.01300
C1864       C  0.73619535  0.80950758  0.55747671     0.04100
C1865       C  0.74345983  0.83110765  0.54741257    -0.11900
C1866       C  0.72830675  0.85094090  0.54805006     0.23400
C1867       C  0.70566504  0.84903926  0.55852931    -0.12500
C1868       C  0.69845850  0.82752340  0.56897072     0.04800
C1869       C  0.73586767  0.87362818  0.53704233     0.27300
C1870       C  0.74783675  0.89091770  0.55061062    -0.13200
C1871       C  0.75300818  0.91324229  0.54070557     0.05400
C1872       C  0.74641014  0.91820240  0.51713057    -0.09100
C1873       C  0.73579116  0.90035934  0.50316513     0.06200
C1874       C  0.73046790  0.87815953  0.51310806    -0.13500
Br1875     Br  0.68465962  0.87612739  0.55862361    -0.05600
Br1876     Br  0.75647869  0.78209501  0.55391383     0.00000
Br1877     Br  0.76728076  0.93765023  0.56000770     0.00500
Br1878     Br  0.71485943  0.85421045  0.49428544    -0.03900
Br1879     Br  0.66772078  0.82547242  0.58386019     0.00600
Br1880     Br  0.77423436  0.83368188  0.53258263    -0.03200
Br1881     Br  0.75615113  0.88425793  0.58306897    -0.04100
Br1882     Br  0.72806944  0.90662649  0.47044184    -0.00100
C1883       C  0.00607978  0.97570883  0.97160786     0.01300
C1884       C  0.00453916  0.97437081  0.94582905     0.04100
C1885       C  0.01809844  0.95757967  0.93261860    -0.11900
C1886       C  0.03841027  0.94688338  0.94223894     0.23400
C1887       C  0.04354987  0.95155317  0.96613881    -0.12500
C1888       C  0.02701195  0.96379864  0.98102168     0.04800
C1889       C  0.05451876  0.93133342  0.92694929     0.27300
C1890       C  0.05506092  0.90643767  0.92967960    -0.13200
C1891       C  0.06938559  0.89184613  0.91473984     0.05400
C1892       C  0.08324017  0.90173440  0.89594894    -0.09100
C1893       C  0.07961794  0.92643906  0.89145012     0.06200
C1894       C  0.06763069  0.94116470  0.90808652    -0.13500
Br1895     Br  0.07359429  0.94042949  0.97848265    -0.05600
Br1896     Br  0.99063704  0.99798641  0.92512517     0.00000
Br1897     Br  0.06748527  0.85785984  0.91913190     0.00500
Br1898     Br  0.06886747  0.97523062  0.90467423    -0.03900
Br1899     Br  0.03334774  0.96019670  0.01439667     0.00600
Br1900     Br  0.00902864  0.94940128  0.90048339    -0.03200
Br1901     Br  0.03536738  0.89208838  0.95362585    -0.04100
Br1902     Br  0.08319431  0.93965459  0.86009023    -0.00100
C1903       C  0.97071303  0.97200435  0.00410955     0.01300
C1904       C  0.97316766  0.94623219  0.00503909     0.04100
C1905       C  0.96031942  0.93241641  0.02181133    -0.11900
C1906       C  0.94132289  0.94202405  0.03470104     0.23400
C1907       C  0.93575576  0.96600969  0.03145544    -0.12500
C1908       C  0.95060879  0.98105183  0.01770529     0.04800
C1909       C  0.92627589  0.92655911  0.05067149     0.27300
C1910       C  0.90690677  0.91387882  0.04133517    -0.13200
C1911       C  0.89168532  0.90067212  0.05634562     0.05400
C1912       C  0.89760880  0.89679347  0.08069113    -0.09100
C1913       C  0.91571640  0.91167130  0.09029535     0.06200
C1914       C  0.92991993  0.92609644  0.07540490    -0.13500
Br1915     Br  0.90760675  0.97827277  0.04711426    -0.05600
Br1916     Br  0.98876454  0.92641005  0.98161582     0.00000
Br1917     Br  0.86011587  0.89494124  0.04432288     0.00500
Br1918     Br  0.95418667  0.94584920  0.08908915    -0.03900
Br1919     Br  0.94355306  0.01426200  0.02177703     0.00600
Br1920     Br  0.96799267  0.89930065  0.02700602    -0.03200
Br1921     Br  0.90056406  0.91570641  0.00773368    -0.04100
Br1922     Br  0.91972087  0.91506952  0.12424089    -0.00100
C1923       C  0.89014511  0.07774827  0.89905146     0.01300
C1924       C  0.91322507  0.07037360  0.89144573     0.04100
C1925       C  0.92795699  0.05634674  0.90629546    -0.11900
C1926       C  0.91968678  0.04787862  0.92830300     0.23400
C1927       C  0.89584625  0.05239483  0.93448326    -0.12500
C1928       C  0.88083249  0.06573629  0.91931751     0.04800
C1929       C  0.93585070  0.03361484  0.94445596     0.27300
C1930       C  0.93468156  0.00878301  0.94530880    -0.13200
C1931       C  0.95057683  0.99530790  0.95964548     0.05400
C1932       C  0.96896245  0.00633665  0.97399832    -0.09100
C1933       C  0.96753391  0.03228928  0.97462980     0.06200
C1934       C  0.95211779  0.04514840  0.95922804    -0.13500
Br1935     Br  0.88366759  0.04011241  0.96398713    -0.05600
Br1936     Br  0.92383827  0.07526391  0.85920861     0.00000
Br1937     Br  0.94739733  0.96137475  0.95604149     0.00500
Br1938     Br  0.95189558  0.07962283  0.95874995    -0.03900
Br1939     Br  0.84701154  0.06248808  0.92415164     0.00600
Br1940     Br  0.95972438  0.04827460  0.89632050    -0.03200
Br1941     Br  0.91160647  0.99319725  0.92517063    -0.04100
Br1942     Br  0.98126041  0.05293548  0.99860071    -0.00100
C1943       C  0.08048972  0.07989495  0.08109669     0.01300
C1944       C  0.05961428  0.08920231  0.07009763     0.04100
C1945       C  0.04478955  0.07461040  0.05596252    -0.11900
C1946       C  0.05119323  0.05101891  0.05068481     0.23400
C1947       C  0.07309351  0.04242893  0.05908713    -0.12500
C1948       C  0.08818635  0.05700104  0.07302683     0.04800
C1949       C  0.03539835  0.03554597  0.03546329     0.27300
C1950       C  0.01793868  0.02147165  0.04591311    -0.13200
C1951       C  0.00423184  0.00526646  0.03223455     0.05400
C1952       C  0.00450874  0.00562353  0.00630849    -0.09100
C1953       C  0.02309676  0.02039898  0.99636195     0.06200
C1954       C  0.03848803  0.03425022  0.01083126    -0.13500
Br1955     Br  0.08252339  0.01043217  0.05090743    -0.05600
Br1956     Br  0.05237153  0.12278783  0.07093343     0.00000
Br1957     Br  0.99141917  0.98038729  0.05201632     0.00500
Br1958     Br  0.06383869  0.05271600  0.99695708    -0.03900
Br1959     Br  0.12087833  0.04684488  0.07546711     0.00600
Br1960     Br  0.01535868  0.08695835  0.04364432    -0.03200
Br1961     Br  0.01407788  0.02391473  0.08006619    -0.04100
Br1962     Br  0.02706654  0.02537215  0.96277299    -0.00100
loop_ 
_geom_bond_atom_site_label_1 
_geom_bond_atom_site_label_2 
_geom_bond_distance 
_geom_bond_site_symmetry_2 
_ccdc_geom_bond_type 
C1            C2   1.554       .  S
C1            C7   1.545       .  S
C1            C5   1.553       .  S
C1         C1943   1.571       .  S
C2            H9   1.082       .  S
C2            C3   1.369       .  D
C3            C4   1.533       .  S
C3          C766   1.477       .  S
C4            C8   1.532       .  S
C4            C6   1.536       .  S
C4           H10   1.112       .  S
C5           H11   1.085       .  S
C5            C6   1.370       .  D
C6          C742   1.480       .  S
C7           H12   1.086       .  S
C7            C8   1.366       .  D
C8          C790   1.484       .  S
C13          C14   1.554       .  S
C13          C19   1.558       .  S
C13          C17   1.539       .  S
C13        C1923   1.573       .  S
C14          H21   1.084       .  S
C14          C15   1.369       .  D
C15          C16   1.538       .  S
C15         C556   1.488       .  S
C16          C20   1.538       .  S
C16          C18   1.535       .  S
C16          H22   1.111       .  S
C17          H23   1.086       .  S
C17          C18   1.366       .  D
C18         C394   1.476       .  S
C19          H24   1.084       .  S
C19          C20   1.373       .  D
C20         C694   1.491       .  S
C25          C26   1.555       .  S
C25          C31   1.543       .  S
C25          C29   1.554       .  S
C25        C1912   1.571       .  S
C26          H33   1.086       .  S
C26          C27   1.372       .  D
C27          C28   1.537       .  S
C27         C494   1.487       .  S
C28          C32   1.533       .  S
C28          C30   1.534       .  S
C28          H34   1.111       .  S
C29          H35   1.081       .  S
C29          C30   1.368       .  D
C30         C194   1.479       .  S
C31          H36   1.086       .  S
C31          C32   1.365       .  D
C32         C594   1.478       .  S
C37          C38   1.556       .  S
C37          C43   1.552       .  S
C37          C41   1.551       .  S
C37        C1892   1.577       .  S
C38          H45   1.080       .  S
C38          C39   1.369       .  D
C39          C40   1.535       .  S
C39         C656   1.486       .  S
C40          C44   1.537       .  S
C40          C42   1.529       .  S
C40          H46   1.112       .  S
C41          H47   1.086       .  S
C41          C42   1.369       .  D
C42         C294   1.483       .  S
C43          H48   1.086       .  S
C43          C44   1.370       .  D
C44         C456   1.481       .  S
C49        C1883   1.636   1_655  S
C49        C1903   1.631   1_556  S
C49        C1932   1.635   1_565  S
C49        C1952   1.628   1_666  S
N50          N51   1.322       .  A
N50          C54   1.351       .  A
N50         Cu58   2.093       .  S
N51          C52   1.341       .  A
N51         Cu57   2.063       .  S
C52          C53   1.379       .  A
C52          H55   1.082       .  S
C53          C54   1.389       .  A
C53        C1843   1.480       .  S
C54          H56   1.082       .  S
Cu57         N60   2.061       .  S
Cu58         N68   2.094       .  S
Cu59         N61   2.095       .  S
Cu59         N67   2.097       .  S
N60          N61   1.321       .  A
N60          C64   1.342       .  A
N61          C62   1.351       .  A
C62          C63   1.391       .  A
C62          H65   1.082       .  S
C63          C64   1.382       .  A
C63        C1863   1.489       .  S
C64          H66   1.081       .  S
N67          N68   1.324       .  A
N67          C71   1.349       .  A
N68          C69   1.349       .  A
C69          C70   1.385       .  A
C69          H72   1.083       .  S
C70         C820   1.480       .  S
C70          C71   1.386       .  A
C71          H73   1.080       .  S
N74          N75   1.321       .  A
N74          C78   1.348       .  A
N74         Cu82   2.087       .  S
N75          C76   1.340       .  A
N75         Cu81   2.058       .  S
C76          C77   1.382       .  A
C76          H79   1.080       .  S
C77          C78   1.391       .  A
C77        C1823   1.490       .  S
C78          H80   1.083       .  S
Cu81         N84   2.062       .  S
Cu82         N92   2.087       .  S
Cu83         N85   2.089       .  S
Cu83         N91   2.091       .  S
N84          N85   1.321       .  A
N84          C88   1.343       .  A
N85          C86   1.350       .  A
C86          C87   1.389       .  A
C86          H89   1.082       .  S
C87          C88   1.380       .  A
C87        C1803   1.481       .  S
C88          H90   1.078       .  S
N91          N92   1.323       .  A
N91          C95   1.347       .  A
N92          C93   1.350       .  A
C93          C94   1.385       .  A
C93          H96   1.081       .  S
C94         C825   1.479       .  S
C94          C95   1.384       .  A
C95          H97   1.079       .  S
N98          N99   1.321       .  A
N98         C102   1.349       .  A
N98        Cu106   2.088       .  S
N99         C100   1.342       .  A
N99        Cu105   2.050       .  S
C100        C101   1.377       .  A
C100        H103   1.081       .  S
C101        C102   1.388       .  A
C101       C1763   1.476       .  S
C102        H104   1.079       .  S
Cu105       N108   2.048       .  S
Cu106       N116   2.090       .  S
Cu107       N109   2.115       .  S
Cu107       N115   2.117       .  S
N108        N109   1.322       .  A
N108        C112   1.340       .  A
N109        C110   1.356       .  A
C110        C111   1.394       .  A
C110        H113   1.083       .  S
C111        C112   1.375       .  A
C111       C1783   1.483       .  S
C112        H114   1.082       .  S
N115        N116   1.325       .  A
N115        C119   1.352       .  A
N116        C117   1.350       .  A
C117        C118   1.383       .  A
C117        H120   1.080       .  S
C118        C832   1.486       .  S
C118        C119   1.389       .  A
C119        H121   1.081       .  S
N122        N123   1.320       .  A
N122        C126   1.352       .  A
N122       Cu130   2.103       .  S
N123        C124   1.342       .  A
N123       Cu129   2.051       .  S
C124        C125   1.379       .  A
C124        H127   1.080       .  S
C125        C126   1.393       .  A
C125       C1743   1.487       .  S
C126        H128   1.078       .  S
Cu129       N132   2.046       .  S
Cu130       N140   2.105       .  S
Cu131       N133   2.094       .  S
Cu131       N139   2.097       .  S
N132        N133   1.322       .  A
N132        C136   1.338       .  A
N133        C134   1.352       .  A
C134        C135   1.390       .  A
C134        H137   1.081       .  S
C135        C136   1.374       .  A
C135       C1732   1.475       .  S
C136        H138   1.082       .  S
N139        N140   1.326       .  A
N139        C143   1.349       .  A
N140        C141   1.352       .  A
C141        C142   1.386       .  A
C141        H144   1.081       .  S
C142        C813   1.483       .  S
C142        C143   1.384       .  A
C143        H145   1.083       .  S
O146       Cu154   2.032       .  S
O146        C156   1.280       .  A
O147       Cu154   2.027   1_554  S
O147        C157   1.280       .  A
O148       Cu154   1.988   1_554  S
O148        C158   1.274       .  A
O149       Cu154   1.990       .  S
O149        C159   1.275       .  A
O150       Cu155   2.036       .  S
O150        C159   1.281       .  A
O151       Cu155   2.034       .  S
O151        C158   1.282   1_556  A
O152       Cu155   1.990   1_554  S
O152        C157   1.275       .  A
O153       Cu155   1.991       .  S
O153        C156   1.275       .  A
Cu154      Cu155   2.373       .  S
C156       C1832   1.475       .  S
C157       C1772   1.478       .  S
C158       C1683   1.486       .  S
C159       C1712   1.483       .  S
O160       Cu168   1.969       .  S
O160        C170   1.272       .  A
O161       Cu168   1.969       .  S
O161        C171   1.271       .  A
O162       Cu168   2.045       .  S
O162        C172   1.283       .  A
O163       Cu168   2.038   1_554  S
O163        C173   1.282       .  A
O164       Cu169   1.975   1_554  S
O164        C173   1.272       .  A
O165       Cu169   1.977       .  S
O165        C172   1.272       .  A
O166       Cu169   2.049       .  S
O166        C171   1.284       .  A
O167       Cu169   2.047       .  S
O167        C170   1.283       .  A
Cu168      Cu169   2.372       .  S
C170       C1652   1.487   1_556  S
C171       C1663   1.480       .  S
C172       C1623   1.476       .  S
C173       C1723   1.475       .  S
N174        N175   1.321       .  A
N174        C178   1.349       .  A
N174       Cu182   2.082       .  S
N175        C176   1.340       .  A
N175       Cu181   2.052       .  S
C176        C177   1.377       .  A
C176        H179   1.080       .  S
C177        C178   1.388       .  A
C177       C1643   1.477       .  S
C178        H180   1.082       .  S
Cu181       N184   2.051       .  S
Cu182       N192   2.083       .  S
Cu183       N185   2.104       .  S
Cu183       N191   2.106       .  S
N184        N185   1.321       .  A
N184        C188   1.342       .  A
N185        C186   1.352       .  A
C186        C187   1.392       .  A
C186        H189   1.081       .  S
C187        C188   1.378       .  A
C187       C1692   1.483       .  S
C188        H190   1.079       .  S
N191        N192   1.325       .  A
N191        C195   1.349       .  A
N192        C193   1.349       .  A
C193        C194   1.382       .  A
C193        H196   1.082       .  S
C194        C195   1.386       .  A
C195        H197   1.083       .  S
N198        N199   1.321       .  A
N198        C202   1.352       .  A
N198       Cu206   2.101       .  S
N199        C200   1.343       .  A
N199       Cu205   2.056       .  S
C200        C201   1.380       .  A
C200        H203   1.080       .  S
C201        C202   1.391       .  A
C201       C1632   1.485       .  S
C202        H204   1.079       .  S
Cu205       N208   2.052       .  S
Cu206       N216   2.103       .  S
Cu207       N209   2.095       .  S
Cu207       N215   2.098       .  S
N208        N209   1.321       .  A
N208        C212   1.340       .  A
N209        C210   1.351       .  A
C210        C211   1.391       .  A
C210        H213   1.082       .  S
C211        C212   1.377       .  A
C211       C1603   1.478       .  S
C212        H214   1.082       .  S
N215        N216   1.326       .  A
N215        C219   1.349       .  A
N216        C217   1.351       .  A
C217        C218   1.385       .  A
C217        H220   1.082       .  S
C218        C823   1.483       .  S
C218        C219   1.384       .  A
C219        H221   1.081       .  S
N222        N223   1.321       .  A
N222        C226   1.347       .  A
N222       Cu230   2.072       .  S
N223        C224   1.341       .  A
N223       Cu229   2.053       .  S
C224        C225   1.377       .  A
C224        H227   1.081       .  S
C225        C226   1.384       .  A
C225       C1583   1.470       .  S
C226        H228   1.082       .  S
Cu229       N232   2.054       .  S
Cu230       N240   2.073       .  S
Cu231       N233   2.103       .  S
Cu231       N239   2.104       .  S
N232        N233   1.322       .  A
N232        C236   1.342       .  A
N233        C234   1.352       .  A
C234        C235   1.390       .  A
C234        H237   1.082       .  S
C235        C236   1.378       .  A
C235       C1572   1.482       .  S
C236        H238   1.082       .  S
N239        N240   1.324       .  A
N239        C243   1.351       .  A
N240        C241   1.344       .  A
C241        C242   1.379       .  A
C241        H244   1.081       .  S
C242        C835   1.475       .  S
C242        C243   1.387       .  A
C243        H245   1.083       .  S
O246       Cu254   1.984       .  S
O246        C256   1.274       .  A
O247       Cu254   1.983   1_455  S
O247        C257   1.272       .  A
O248       Cu254   2.041   1_455  S
O248        C258   1.282       .  A
O249       Cu254   2.049       .  S
O249        C259   1.283       .  A
O250       Cu255   1.981       .  S
O250        C259   1.272       .  A
O251       Cu255   1.985   1_455  S
O251        C258   1.274       .  A
O252       Cu255   2.040   1_455  S
O252        C257   1.281       .  A
O253       Cu255   2.039       .  S
O253        C256   1.282       .  A
Cu254      Cu255   2.365       .  S
C256       C1523   1.482       .  S
C257       C1543   1.505       .  S
C258       C1563   1.481       .  S
C259       C1852   1.481       .  S
O260       Cu268   2.046   1_455  S
O260        C270   1.283       .  A
O261       Cu268   2.047       .  S
O261        C271   1.283       .  A
O262       Cu268   2.001       .  S
O262        C272   1.276       .  A
O263       Cu268   1.995   1_455  S
O263        C273   1.275       .  A
O264       Cu269   2.037   1_455  S
O264        C273   1.282       .  A
O265       Cu269   2.043       .  S
O265        C272   1.282       .  A
O266       Cu269   1.981       .  S
O266        C271   1.273       .  A
O267       Cu269   1.981   1_455  S
O267        C270   1.273       .  A
Cu268      Cu269   2.372       .  S
C270       C1463   1.484       .  S
C271       C1612   1.483       .  S
C272       C1483   1.486       .  S
C273       C1503   1.483       .  S
N274        N275   1.322       .  A
N274        C278   1.352       .  A
N274       Cu282   2.107       .  S
N275        C276   1.342       .  A
N275       Cu281   2.053       .  S
C276        C277   1.379       .  A
C276        H279   1.080       .  S
C277        C278   1.392       .  A
C277       C1512   1.486       .  S
C278        H280   1.082       .  S
Cu281       N284   2.054       .  S
Cu282       N292   2.110       .  S
Cu283       N285   2.090       .  S
Cu283       N291   2.091       .  S
N284        N285   1.321       .  A
N284        C288   1.342       .  A
N285        C286   1.349       .  A
C286        C287   1.390       .  A
C286        H289   1.082       .  S
C287        C288   1.378       .  A
C287       C1552   1.480       .  S
C288        H290   1.080       .  S
N291        N292   1.325       .  A
N291        C295   1.349       .  A
N292        C293   1.351       .  A
C293        C294   1.389       .  A
C293        H296   1.082       .  S
C294        C295   1.384       .  A
C295        H297   1.081       .  S
N298        N299   1.320       .  A
N298        C302   1.352       .  A
N298       Cu306   2.093       .  S
N299        C300   1.341       .  A
N299       Cu305   2.054       .  S
C300        C301   1.380       .  A
C300        H303   1.079       .  S
C301        C302   1.391       .  A
C301       C1443   1.485       .  S
C302        H304   1.081       .  S
Cu305       N308   2.057       .  S
Cu306       N316   2.096       .  S
Cu307       N309   2.085       .  S
Cu307       N315   2.085       .  S
N308        N309   1.321       .  A
N308        C312   1.340       .  A
N309        C310   1.350       .  A
C310        C311   1.389       .  A
C310        H313   1.081       .  S
C311        C312   1.378       .  A
C311       C1472   1.480       .  S
C312        H314   1.081       .  S
N315        N316   1.325       .  A
N315        C319   1.347       .  A
N316        C317   1.348       .  A
C317        C318   1.384       .  A
C317        H320   1.083       .  S
C318        C796   1.476       .  S
C318        C319   1.381       .  A
C319        H321   1.082       .  S
N322        N323   1.321       .  A
N322        C326   1.352       .  A
N322       Cu330   2.099       .  S
N323        C324   1.341       .  A
N323       Cu329   2.051       .  S
C324        C325   1.377       .  A
C324        H327   1.081       .  S
C325        C326   1.391       .  A
C325       C1423   1.480       .  S
C326        H328   1.082       .  S
Cu329       N332   2.050       .  S
Cu330       N340   2.101       .  S
Cu331       N333   2.086       .  S
Cu331       N339   2.088       .  S
N332        N333   1.321       .  A
N332        C336   1.340       .  A
N333        C334   1.350       .  A
C334        C335   1.388       .  A
C334        H337   1.082       .  S
C335        C336   1.376       .  A
C335       C1403   1.475       .  S
C336        H338   1.080       .  S
N339        N340   1.325       .  A
N339        C343   1.347       .  A
N340        C341   1.350       .  A
C341        C342   1.385       .  A
C341        H344   1.082       .  S
C342        C811   1.478       .  S
C342        C343   1.382       .  A
C343        H345   1.083       .  S
O346       Cu354   2.045       .  S
O346        C356   1.283       .  A
O347       Cu354   2.046       .  S
O347        C357   1.282   1_565  A
O348       Cu354   1.979   1_545  S
O348        C358   1.273       .  A
O349       Cu354   1.980       .  S
O349        C359   1.273       .  A
O350       Cu355   2.040       .  S
O350        C359   1.282       .  A
O351       Cu355   2.039   1_545  S
O351        C358   1.282       .  A
O352       Cu355   1.950       .  S
O352        C357   1.270   1_565  A
O353       Cu355   1.970       .  S
O353        C356   1.272       .  A
Cu354      Cu355   2.370       .  S
C356       C1363   1.484       .  S
C357       C1383   1.476       .  S
C358       C1412   1.483       .  S
C359       C1872   1.476       .  S
O360       Cu368   2.026   1_545  S
O360        C370   1.281       .  A
O361       Cu368   2.034       .  S
O361        C371   1.281       .  A
O362       Cu368   1.980   1_545  S
O362        C372   1.274       .  A
O363       Cu368   1.984       .  S
O363        C373   1.274       .  A
O364       Cu369   2.042       .  S
O364        C373   1.282       .  A
O365       Cu369   2.038       .  S
O365        C372   1.281   1_565  A
O366       Cu369   1.989       .  S
O366        C371   1.275       .  A
O367       Cu369   1.980   1_545  S
O367        C370   1.273       .  A
Cu368      Cu369   2.373       .  S
C370       C1303   1.476       .  S
C371       C1812   1.487       .  S
C372       C1323   1.477       .  S
C373       C1343   1.479       .  S
N374        N375   1.322       .  A
N374        C378   1.349       .  A
N374       Cu382   2.089       .  S
N375        C376   1.342       .  A
N375       Cu381   2.054       .  S
C376        C377   1.377       .  A
C376        H379   1.080       .  S
C377        C378   1.387       .  A
C377       C1332   1.475       .  S
C378        H380   1.081       .  S
Cu381       N384   2.050       .  S
Cu382       N392   2.089       .  S
Cu383       N385   2.078       .  S
Cu383       N391   2.081       .  S
N384        N385   1.320       .  A
N384        C388   1.340       .  A
N385        C386   1.348       .  A
C386        C387   1.388       .  A
C386        H389   1.081       .  S
C387        C388   1.377       .  A
C387       C1392   1.476       .  S
C388        H390   1.081   1_545  S
N391        N392   1.324       .  A
N391        C395   1.347       .  A
N392        C393   1.348       .  A
C393        C394   1.383       .  A
C393        H396   1.081       .  S
C394        C395   1.383       .  A
C395        H397   1.083       .  S
N398        N399   1.322       .  A
N398        C402   1.352       .  A
N398       Cu406   2.103       .  S
N399        C400   1.341       .  A
N399       Cu405   2.051       .  S
C400        C401   1.378       .  A
C400        H403   1.082       .  S
C401        C402   1.391       .  A
C401       C1283   1.483       .  S
C402        H404   1.081       .  S
Cu405       N408   2.052       .  S
Cu406       N416   2.104       .  S
Cu407       N409   2.079       .  S
Cu407       N415   2.080       .  S
N408        N409   1.322       .  A
N408        C412   1.341       .  A
N409        C410   1.348       .  A
C410        C411   1.385       .  A
C410        H413   1.080       .  S
C411        C412   1.377       .  A
C411       C1312   1.471       .  S
C412        H414   1.080       .  S
N415        N416   1.324       .  A
N415        C419   1.347       .  A
N416        C417   1.350       .  A
C417        C418   1.387       .  A
C417        H420   1.083       .  S
C418        C799   1.478       .  S
C418        C419   1.381       .  A
C419        H421   1.082       .  S
O422       Cu430   1.977       .  S
O422        C432   1.273       .  A
O423       Cu430   1.972       .  S
O423        C433   1.272       .  A
O424       Cu430   2.066   1_554  S
O424        C434   1.285       .  A
O425       Cu430   2.052       .  S
O425        C435   1.283       .  A
O426       Cu431   1.990       .  S
O426        C435   1.274       .  A
O427       Cu431   1.980   1_554  S
O427        C434   1.273       .  A
O428       Cu431   2.056       .  S
O428        C433   1.283       .  A
O429       Cu431   2.050       .  S
O429        C432   1.284       .  A
Cu430      Cu431   2.362       .  S
C432       C1263   1.490       .  S
C433       C1252   1.492   1_556  S
C434       C1223   1.501       .  S
C435       C1452   1.485       .  S
N436        N437   1.322       .  A
N436        C440   1.350       .  A
N436       Cu444   2.089       .  S
N437        C438   1.341       .  A
N437       Cu443   2.054       .  S
C438        C439   1.377       .  A
C438        H441   1.080       .  S
C439        C440   1.387       .  A
C439       C1703   1.476       .  S
C440        H442   1.081       .  S
Cu443       N446   2.052       .  S
Cu444       N454   2.090       .  S
Cu445       N447   2.098       .  S
Cu445       N453   2.100       .  S
N446        N447   1.321       .  A
N446        C450   1.342       .  A
N447        C448   1.351       .  A
C448        C449   1.390       .  A
C448        H451   1.082       .  S
C449        C450   1.379       .  A
C449       C1272   1.482       .  S
C450        H452   1.081       .  S
N453        N454   1.325       .  A
N453        C457   1.350       .  A
N454        C455   1.349       .  A
C455        C456   1.383       .  A
C455        H458   1.083       .  S
C456        C457   1.386       .  A
C457        H459   1.083       .  S
O460       Cu468   1.976   1_455  S
O460        C470   1.273       .  A
O461       Cu468   1.984       .  S
O461        C471   1.273       .  A
O462       Cu468   2.046   1_455  S
O462        C472   1.283       .  A
O463       Cu468   2.035       .  S
O463        C473   1.280       .  A
O464       Cu469   1.990       .  S
O464        C473   1.274       .  A
O465       Cu469   1.977   1_455  S
O465        C472   1.272       .  A
O466       Cu469   2.048       .  S
O466        C471   1.283       .  A
O467       Cu469   2.043   1_455  S
O467        C470   1.282       .  A
Cu468      Cu469   2.367       .  S
C470       C1172   1.485       .  S
C471       C1752   1.505       .  S
C472       C1183   1.477       .  S
C473       C1212   1.475       .  S
N474        N475   1.322       .  A
N474        C478   1.353       .  A
N474       Cu482   2.100       .  S
N475        C476   1.341       .  A
N475       Cu481   2.053       .  S
C476        C477   1.377       .  A
C476        H479   1.082       .  S
C477        C478   1.390       .  A
C477       C1203   1.480       .  S
C478        H480   1.081       .  S
Cu481       N484   2.052       .  S
Cu482       N492   2.102       .  S
Cu483       N485   2.103       .  S
Cu483       N491   2.105       .  S
N484        N485   1.322       .  A
N484        C488   1.342       .  A
N485        C486   1.351       .  A
C486        C487   1.390       .  A
C486        H489   1.080       .  S
C487        C488   1.377       .  A
C487       C1532   1.480       .  S
C488        H490   1.080       .  S
N491        N492   1.325       .  A
N491        C495   1.352       .  A
N492        C493   1.350       .  A
C493        C494   1.386       .  A
C493        H496   1.082       .  S
C494        C495   1.387       .  A
C495        H497   1.084       .  S
N498        N499   1.322       .  A
N498        C502   1.353       .  A
N498       Cu506   2.106       .  S
N499        C500   1.341       .  A
N499       Cu505   2.054       .  S
C500        C501   1.376       .  A
C500        H503   1.082       .  S
C501        C502   1.391       .  A
C501       C1232   1.482       .  S
C502        H504   1.082       .  S
Cu505       N508   2.052       .  S
Cu506       N516   2.107       .  S
Cu507       N509   2.077       .  S
Cu507       N515   2.080       .  S
N508        N509   1.320       .  A
N508        C512   1.340       .  A
N509        C510   1.349       .  A
C510        C511   1.387       .  A
C510        H513   1.082       .  S
C511        C512   1.378       .  A
C511       C1163   1.474       .  S
C512        H514   1.081       .  S
N515        N516   1.325       .  A
N515        C519   1.345       .  A
N516        C517   1.353       .  A
C517        C518   1.388       .  A
C517        H520   1.081       .  S
C518        C837   1.479       .  S
C518        C519   1.380       .  A
C519        H521   1.081       .  S
O522       Cu530   2.050   1_554  S
O522        C532   1.284       .  A
O523       Cu530   2.051       .  S
O523        C533   1.284       .  A
O524       Cu530   1.998       .  S
O524        C534   1.274       .  A
O525       Cu530   1.983   1_554  S
O525        C535   1.272       .  A
O526       Cu531   2.057       .  S
O526        C535   1.284   1_556  A
O527       Cu531   2.050       .  S
O527        C534   1.284       .  A
O528       Cu531   1.972       .  S
O528        C533   1.272       .  A
O529       Cu531   1.965   1_554  S
O529        C532   1.270       .  A
Cu530      Cu531   2.364       .  S
C532       C1112   1.494       .  S
C533       C1292   1.491       .  S
C534       C1152   1.489       .  S
C535       C1132   1.480       .  S
N536        N537   1.322       .  A
N536        C540   1.350       .  A
N536       Cu544   2.092       .  S
N537        C538   1.340       .  A
N537       Cu543   2.060       .  S
C538        C539   1.382       .  A
C538        H541   1.083       .  S
C539        C540   1.391       .  A
C539       C1672   1.488       .  S
C540        H542   1.082       .  S
Cu543       N546   2.061       .  S
Cu544       N554   2.093       .  S
Cu545       N547   2.112       .  S
Cu545       N553   2.114       .  S
N546        N547   1.321       .  A
N546        C550   1.344       .  A
N547        C548   1.354       .  A
C548        C549   1.394       .  A
C548        H551   1.081       .  S
C549        C550   1.380       .  A
C549       C1143   1.489       .  S
C550        H552   1.080       .  S
N553        N554   1.325       .  A
N553        C557   1.352       .  A
N554        C555   1.350       .  A
C555        C556   1.384       .  A
C555        H558   1.082       .  S
C556        C557   1.390       .  A
C557        H559   1.084       .  S
O560       Cu568   2.064       .  S
O560        C570   1.285       .  A
O561       Cu568   2.043   1_545  S
O561        C571   1.281       .  A
O562       Cu568   1.966       .  S
O562        C572   1.270       .  A
O563       Cu568   1.964   1_545  S
O563        C573   1.271       .  A
O564       Cu569   2.045   1_545  S
O564        C573   1.283       .  A
O565       Cu569   2.051       .  S
O565        C572   1.284       .  A
O566       Cu569   1.999   1_545  S
O566        C571   1.274       .  A
O567       Cu569   1.980       .  S
O567        C570   1.272       .  A
Cu568      Cu569   2.366       .  S
C570       C1792   1.486       .  S
C571       C1052   1.480       .  S
C572       C1083   1.498       .  S
C573       C1063   1.486       .  S
N574        N575   1.322       .  A
N574        C578   1.351       .  A
N574       Cu582   2.095       .  S
N575        C576   1.341       .  A
N575       Cu581   2.051       .  S
C576        C577   1.378       .  A
C576        H579   1.081       .  S
C577        C578   1.390       .  A
C577       C1372   1.480       .  S
C578        H580   1.081       .  S
Cu581       N584   2.049       .  S
Cu582       N592   2.097       .  S
Cu583       N585   2.085       .  S
Cu583       N591   2.087       .  S
N584        N585   1.321       .  A
N584        C588   1.341       .  A
N585        C586   1.349       .  A
C586        C587   1.388       .  A
C586        H589   1.080       .  S
C587        C588   1.377       .  A
C587       C1092   1.476       .  S
C588        H590   1.080       .  S
N591        N592   1.325       .  A
N591        C595   1.348       .  A
N592        C593   1.349       .  A
C593        C594   1.384       .  A
C593        H596   1.083       .  S
C594        C595   1.382       .  A
C595        H597   1.082       .  S
N598        N599   1.321       .  A
N598        C602   1.354       .  A
N598       Cu606   2.103       .  S
N599        C600   1.338       .  A
N599       Cu605   2.050       .  S
C600        C601   1.376       .  A
C600        H603   1.083       .  S
C601        C602   1.392       .  A
C601       C1043   1.482       .  S
C602        H604   1.082       .  S
Cu605       N608   2.049       .  S
Cu606       N616   2.106       .  S
Cu607       N609   2.085       .  S
Cu607       N615   2.089       .  S
N608        N609   1.319       .  A
N608        C612   1.339       .  A
N609        C610   1.350       .  A
C610        C611   1.392       .  A
C610        H613   1.085       .  S
C611        C612   1.378       .  A
C611       C1103   1.483       .  S
C612        H614   1.085       .  S
N615        N616   1.327       .  A
N615        C619   1.347       .  A
N616        C617   1.350       .  A
C617        C618   1.385       .  A
C617        H620   1.082       .  S
C618        C808   1.480       .  S
C618        C619   1.381       .  A
C619        H621   1.084       .  S
O622       Cu630   2.044       .  S
O622        C632   1.282       .  A
O623       Cu630   2.049   1_545  S
O623        C633   1.284       .  A
O624       Cu630   2.000   1_545  S
O624        C634   1.275       .  A
O625       Cu630   1.989       .  S
O625        C635   1.272       .  A
O626       Cu631   2.065       .  S
O626        C635   1.285       .  A
O627       Cu631   2.046   1_545  S
O627        C634   1.282       .  A
O628       Cu631   1.975   1_545  S
O628        C633   1.272       .  A
O629       Cu631   1.970       .  S
O629        C632   1.271       .  A
Cu630      Cu631   2.365       .  S
C632       C1592   1.494       .  S
C633        C992   1.490       .  S
C634       C1012   1.487       .  S
C635       C1023   1.486       .  S
N636        N637   1.320       .  A
N636        C640   1.351       .  A
N636       Cu644   2.092       .  S
N637        C638   1.341       .  A
N637       Cu643   2.052       .  S
C638        C639   1.379       .  A
C638        H641   1.081       .  S
C639        C640   1.390       .  A
C639       C1352   1.481       .  S
C640        H642   1.081       .  S
Cu643       N646   2.054       .  S
Cu644       N654   2.095       .  S
Cu645       N647   2.116       .  S
Cu645       N653   2.119       .  S
N646        N647   1.322       .  A
N646        C650   1.341       .  A
N647        C648   1.356       .  A
C648        C649   1.394       .  A
C648        H651   1.080       .  S
C649        C650   1.376       .  A
C649       C1032   1.486       .  S
C650        H652   1.079       .  S
N653        N654   1.326       .  A
N653        C657   1.352       .  A
N654        C655   1.350       .  A
C655        C656   1.383       .  A
C655        H658   1.081       .  S
C656        C657   1.389       .  A
C657        H659   1.083       .  S
O660       Cu668   2.043   1_455  S
O660        C670   1.282       .  A
O661       Cu668   2.047       .  S
O661        C671   1.283       .  A
O662       Cu668   1.978   1_455  S
O662        C672   1.272       .  A
O663       Cu668   1.964       .  S
O663        C673   1.272       .  A
O664       Cu669   2.052       .  S
O664        C673   1.284       .  A
O665       Cu669   2.045   1_455  S
O665        C672   1.284       .  A
O666       Cu669   1.975       .  S
O666        C671   1.273       .  A
O667       Cu669   1.983   1_455  S
O667        C670   1.273       .  A
Cu668      Cu669   2.371       .  S
C670        C923   1.477       .  S
C671       C1432   1.485       .  S
C672        C943   1.481       .  S
C673        C963   1.483       .  S
N674        N675   1.321       .  A
N674        C678   1.354       .  A
N674       Cu682   2.111       .  S
N675        C676   1.341       .  A
N675       Cu681   2.054       .  S
C676        C677   1.381       .  A
C676        H679   1.081       .  S
C677        C678   1.396       .  A
C677       C1492   1.496       .  S
C678        H680   1.081       .  S
Cu681       N684   2.054       .  S
Cu682       N692   2.112       .  S
Cu683       N685   2.099       .  S
Cu683       N691   2.102       .  S
N684        N685   1.321       .  A
N684        C688   1.342       .  A
N685        C686   1.352       .  A
C686        C687   1.391       .  A
C686        H689   1.081       .  S
C687        C688   1.377       .  A
C687        C972   1.482       .  S
C688        H690   1.081       .  S
N691        N692   1.325       .  A
N691        C695   1.350       .  A
N692        C693   1.354       .  A
C693        C694   1.389       .  A
C693        H696   1.081       .  S
C694        C695   1.387       .  A
C695        H697   1.085       .  S
N698        N699   1.320       .  A
N698        C702   1.350       .  A
N698       Cu706   2.088       .  S
N699        C700   1.342       .  A
N699       Cu705   2.054       .  S
C700        C701   1.379       .  A
C700        H703   1.082       .  S
C701        C702   1.388       .  A
C701        C983   1.479       .  S
C702        H704   1.082       .  S
Cu705       N708   2.050       .  S
Cu706       N716   2.091       .  S
Cu707       N709   2.095       .  S
Cu707       N715   2.096       .  S
N708        N709   1.322       .  A
N708        C712   1.338       .  A
N709        C710   1.352       .  A
C710        C711   1.390       .  A
C710        H713   1.081       .  S
C711        C712   1.377       .  A
C711        C932   1.480       .  S
C712        H714   1.082       .  S
N715        N716   1.325       .  A
N715        C719   1.349       .  A
N716        C717   1.348       .  A
C717        C718   1.383       .  A
C717        H720   1.083       .  S
C718        C801   1.479       .  S
C718        C719   1.384       .  A
C719        H721   1.082       .  S
N722        N723   1.322       .  A
N722        C726   1.350       .  A
N722       Cu730   2.092       .  S
N723        C724   1.340       .  A
N723       Cu729   2.050       .  S
C724        C725   1.376       .  A
C724        H727   1.082       .  S
C725        C726   1.387       .  A
C725       C1192   1.475       .  S
C726        H728   1.082       .  S
Cu729       N732   2.051       .  S
Cu730       N740   2.094       .  S
Cu731       N733   2.094       .  S
Cu731       N739   2.096       .  S
N732        N733   1.321       .  A
N732        C736   1.341       .  A
N733        C734   1.351       .  A
C734        C735   1.389       .  A
C734        H737   1.079       .  S
C735        C736   1.377       .  A
C735        C952   1.478       .  S
C736        H738   1.080       .  S
N739        N740   1.325       .  A
N739        C743   1.350       .  A
N740        C741   1.348       .  A
C741        C742   1.383       .  A
C741        H744   1.079       .  S
C742        C743   1.385       .  A
C743        H745   1.081       .  S
N746        N747   1.321       .  A
N746        C750   1.348       .  A
N746       Cu754   2.077       .  S
N747        C748   1.341       .  A
N747       Cu753   2.058       .  S
C748        C749   1.378       .  A
C748        H751   1.080       .  S
C749        C750   1.386       .  A
C749       C1072   1.473       .  S
C750        H752   1.082       .  S
Cu753       N756   2.058       .  S
Cu754       N764   2.079       .  S
Cu755       N757   2.102       .  S
Cu755       N763   2.103       .  S
N756        N757   1.322       .  A
N756        C760   1.342       .  A
N757        C758   1.352       .  A
C758        C759   1.392       .  A
C758        H761   1.082       .  S
C759        C760   1.381       .  A
C759       C1003   1.487       .  S
C760        H762   1.081       .  S
N763        N764   1.324       .  A
N763        C767   1.350       .  A
N764        C765   1.346       .  A
C765        C766   1.380       .  A
C765        H768   1.082       .  S
C766        C767   1.387       .  A
C767        H769   1.082       .  S
N770        N771   1.320       .  A
N770        C774   1.349       .  A
N770       Cu778   2.083       .  S
N771        C772   1.341       .  A
N771       Cu777   2.053       .  S
C772        C773   1.378       .  A
C772        H775   1.080   1_554  S
C773        C774   1.389       .  A
C773       C1243   1.478       .  S
C774        H776   1.081       .  S
Cu777       N780   2.054       .  S
Cu778       N788   2.085       .  S
Cu779       N781   2.115       .  S
Cu779       N787   2.116       .  S
N780        N781   1.322       .  A
N780        C784   1.341       .  A
N781        C782   1.355       .  A
C782        C783   1.394       .  A
C782        H785   1.081       .  S
C783        C784   1.377       .  A
C783       C1123   1.487       .  S
C784        H786   1.079       .  S
N787        N788   1.325       .  A
N787        C791   1.352       .  A
N788        C789   1.348       .  A
C789        C790   1.382       .  A
C789        H792   1.083       .  S
C790        C791   1.389       .  A
C791        H793   1.082       .  S
C794        C795   1.554       .  S
C794        C800   1.552       .  S
C794        C798   1.545       .  S
C794        C912   1.567       .  S
C795        H802   1.084       .  S
C795        C796   1.367       .  D
C796        C797   1.528       .  S
C797        C801   1.533       .  S
C797        C799   1.533       .  S
C797        H803   1.112       .  S
C798        H804   1.086       .  S
C798        C799   1.369       .  D
C800        H805   1.084       .  S
C800        C801   1.368       .  D
C806        C807   1.543       .  S
C806        C812   1.556       .  S
C806        C810   1.552       .  S
C806        C883   1.567       .  S
C807        H814   1.086       .  S
C807        C808   1.366       .  D
C808        C809   1.533       .  S
C809        C813   1.535       .  S
C809        C811   1.534       .  S
C809        H815   1.111       .  S
C810        H816   1.084       .  S
C810        C811   1.367       .  D
C812        H817   1.085       .  S
C812        C813   1.371       .  D
C818        C819   1.548       .  S
C818        C824   1.553       .  S
C818        C822   1.555       .  S
C818        C863   1.570       .  S
C819        H826   1.086       .  S
C819        C820   1.368       .  D
C820        C821   1.529       .  S
C821        C825   1.534       .  S
C821        C823   1.535       .  S
C821        H827   1.112       .  S
C822        H828   1.084       .  S
C822        C823   1.370       .  D
C824        H829   1.084       .  S
C824        C825   1.368       .  D
C830        C831   1.558       .  S
C830        C836   1.553       .  S
C830        C834   1.544       .  S
C830        C852   1.569       .  S
C831        H838   1.084       .  S
C831        C832   1.372       .  D
C832        C833   1.534       .  S
C833        C837   1.535       .  S
C833        C835   1.529       .  S
C833        H839   1.112       .  S
C834        H840   1.086       .  S
C834        C835   1.364       .  D
C836        H841   1.084       .  S
C836        C837   1.368       .  D
C842        C843   1.634       .  S
C842        C872   1.640       .  S
C842        C892   1.634       .  S
C842        C903   1.634       .  S
C843        C844   1.455       .  A
C843        C848   1.467       .  A
C844        C845   1.425       .  A
C844       Br856   1.927       .  S
C845        C846   1.400       .  A
C845       Br860   1.940       .  S
C846        C847   1.397       .  A
C846        C849   1.514       .  S
C847        C848   1.426       .  A
C847       Br855   1.946       .  S
C848       Br859   1.942       .  S
C849        C850   1.408       .  A
C849        C854   1.410       .  A
C850        C851   1.418       .  A
C850       Br861   1.931       .  S
C851        C852   1.431       .  A
C851       Br857   1.936       .  S
C852        C853   1.430       .  A
C853        C854   1.420       .  A
C853       Br862   1.934       .  S
C854       Br858   1.932       .  S
C863        C864   1.431       .  A
C863        C868   1.428       .  A
C864        C865   1.421       .  A
C864       Br876   1.935       .  S
C865        C866   1.410       .  A
C865       Br880   1.932       .  S
C866        C867   1.409       .  A
C866        C869   1.517       .  S
C867        C868   1.419       .  A
C867       Br875   1.928       .  S
C868       Br879   1.934       .  S
C869        C870   1.398       .  A
C869        C874   1.400       .  A
C870        C871   1.428       .  A
C870       Br881   1.943       .  S
C871        C872   1.467       .  A
C871       Br877   1.939       .  S
C872        C873   1.457       .  A
C873        C874   1.426       .  A
C873       Br882   1.926       .  S
C874       Br878   1.941       .  S
C883        C884   1.426       .  A
C883        C888   1.430       .  A
C884        C885   1.419       .  A
C884       Br896   1.935       .  S
C885        C886   1.411       .  A
C885       Br900   1.927       .  S
C886        C887   1.410       .  A
C886        C889   1.516       .  S
C887        C888   1.420       .  A
C887       Br895   1.932       .  S
C888       Br899   1.935       .  S
C889        C890   1.400       .  A
C889        C894   1.400       .  A
C890        C891   1.427       .  A
C890       Br901   1.941       .  S
C891        C892   1.462       .  A
C891       Br897   1.939       .  S
C892        C893   1.458       .  A
C893        C894   1.425       .  A
C893       Br902   1.926       .  S
C894       Br898   1.941       .  S
C903        C904   1.456       .  A
C903        C908   1.465       .  A
C904        C905   1.424       .  A
C904       Br916   1.928       .  S
C905        C906   1.400       .  A
C905       Br920   1.941       .  S
C906        C907   1.399       .  A
C906        C909   1.515       .  S
C907        C908   1.428       .  A
C907       Br915   1.942       .  S
C908       Br919   1.943       .  S
C909        C910   1.410       .  A
C909        C914   1.410       .  A
C910        C911   1.419       .  A
C910       Br921   1.931       .  S
C911        C912   1.428       .  A
C911       Br917   1.934       .  S
C912        C913   1.427       .  A
C913        C914   1.417       .  A
C913       Br922   1.936       .  S
C914       Br918   1.927       .  S
C923        C924   1.412       .  A
C923        C928   1.410       .  A
C924        C925   1.411       .  A
C924       Br936   1.929       .  S
C925        C926   1.409       .  A
C925       Br940   1.928       .  S
C926        C927   1.410       .  A
C926        C929   1.486       .  S
C927        C928   1.406       .  A
C927       Br935   1.932       .  S
C928       Br939   1.930       .  S
C929        C930   1.411       .  A
C929        C934   1.407       .  A
C930        C931   1.409       .  A
C930       Br941   1.928       .  S
C931        C932   1.407       .  A
C931       Br937   1.927       .  S
C932        C933   1.413       .  A
C933        C934   1.406       .  A
C933       Br942   1.928       .  S
C934       Br938   1.929       .  S
C943        C944   1.415       .  A
C943        C948   1.411   1_455  A
C944        C945   1.408       .  A
C944       Br956   1.932       .  S
C945        C946   1.408       .  A
C945       Br960   1.931       .  S
C946        C947   1.411       .  A
C946        C949   1.489       .  S
C947        C948   1.410   1_455  A
C947       Br955   1.930   1_455  S
C948       Br959   1.931       .  S
C949        C950   1.410       .  A
C949        C954   1.412       .  A
C950        C951   1.409       .  A
C950       Br961   1.930       .  S
C951        C952   1.411       .  A
C951       Br957   1.929       .  S
C952        C953   1.407       .  A
C953        C954   1.408       .  A
C953       Br962   1.929   1_455  S
C954       Br958   1.929   1_455  S
C963        C964   1.415       .  A
C963        C968   1.411       .  A
C964        C965   1.404       .  A
C964       Br976   1.935       .  S
C965        C966   1.406       .  A
C965       Br980   1.931       .  S
C966        C967   1.412       .  A
C966        C969   1.489       .  S
C967        C968   1.413       .  A
C967       Br975   1.927       .  S
C968       Br979   1.929       .  S
C969        C970   1.409       .  A
C969        C974   1.411       .  A
C970        C971   1.411       .  A
C970       Br981   1.929       .  S
C971        C972   1.412       .  A
C971       Br977   1.928       .  S
C972        C973   1.409       .  A
C973        C974   1.409       .  A
C973       Br982   1.929       .  S
C974       Br978   1.930       .  S
C983        C984   1.407       .  A
C983        C988   1.411       .  A
C984        C985   1.408       .  A
C984       Br996   1.928       .  S
C985        C986   1.411       .  A
C985      Br1000   1.929       .  S
C986        C987   1.408       .  A
C986        C989   1.487       .  S
C987        C988   1.409       .  A
C987       Br995   1.929       .  S
C988       Br999   1.926       .  S
C989        C990   1.409       .  A
C989        C994   1.404       .  A
C990        C991   1.412       .  A
C990      Br1001   1.929       .  S
C991        C992   1.417       .  A
C991       Br997   1.932       .  S
C992        C993   1.421       .  A
C993        C994   1.406       .  A
C993      Br1002   1.933       .  S
C994       Br998   1.934       .  S
C1003      C1004   1.410       .  A
C1003      C1008   1.416       .  A
C1004      C1005   1.412       .  A
C1004     Br1016   1.929       .  S
C1005      C1006   1.412       .  A
C1005     Br1020   1.928       .  S
C1006      C1007   1.408       .  A
C1006      C1009   1.493       .  S
C1007      C1008   1.409       .  A
C1007     Br1015   1.930       .  S
C1008     Br1019   1.931       .  S
C1009      C1010   1.411       .  A
C1009      C1014   1.408       .  A
C1010      C1011   1.413       .  A
C1010     Br1021   1.928       .  S
C1011      C1012   1.412       .  A
C1011     Br1017   1.929       .  S
C1012      C1013   1.412       .  A
C1013      C1014   1.409       .  A
C1013     Br1022   1.926   1_545  S
C1014     Br1018   1.930   1_545  S
C1023      C1024   1.409       .  A
C1023      C1028   1.414       .  A
C1024      C1025   1.410       .  A
C1024     Br1036   1.923   1_565  S
C1025      C1026   1.411       .  A
C1025     Br1040   1.930       .  S
C1026      C1027   1.410       .  A
C1026      C1029   1.496       .  S
C1027      C1028   1.413       .  A
C1027     Br1035   1.929       .  S
C1028     Br1039   1.925       .  S
C1029      C1030   1.410       .  A
C1029      C1034   1.413       .  A
C1030      C1031   1.411       .  A
C1030     Br1041   1.929       .  S
C1031      C1032   1.412       .  A
C1031     Br1037   1.928       .  S
C1032      C1033   1.408       .  A
C1033      C1034   1.411       .  A
C1033     Br1042   1.928       .  S
C1034     Br1038   1.930       .  S
C1043      C1044   1.412       .  A
C1043      C1048   1.408       .  A
C1044      C1045   1.408       .  A
C1044     Br1056   1.930       .  S
C1045      C1046   1.408       .  A
C1045     Br1060   1.928       .  S
C1046      C1047   1.412       .  A
C1046      C1049   1.491       .  S
C1047      C1048   1.412       .  A
C1047     Br1055   1.928       .  S
C1048     Br1059   1.927       .  S
C1049      C1050   1.412       .  A
C1049      C1054   1.409       .  A
C1050      C1051   1.409       .  A
C1050     Br1061   1.931       .  S
C1051      C1052   1.408       .  A
C1051     Br1057   1.927       .  S
C1052      C1053   1.410       .  A
C1053      C1054   1.411       .  A
C1053     Br1062   1.927       .  S
C1054     Br1058   1.927       .  S
C1063      C1064   1.421       .  A
C1063      C1068   1.414       .  A
C1064      C1065   1.402       .  A
C1064     Br1076   1.937   1_545  S
C1065      C1066   1.403       .  A
C1065     Br1080   1.934       .  S
C1066      C1067   1.409       .  A
C1066      C1069   1.481       .  S
C1067      C1068   1.411       .  A
C1067     Br1075   1.929       .  S
C1068     Br1079   1.929       .  S
C1069      C1070   1.410       .  A
C1069      C1074   1.408       .  A
C1070      C1071   1.406       .  A
C1070     Br1081   1.930       .  S
C1071      C1072   1.407       .  A
C1071     Br1077   1.928       .  S
C1072      C1073   1.411       .  A
C1073      C1074   1.406       .  A
C1073     Br1082   1.930       .  S
C1074     Br1078   1.930       .  S
C1083      C1084   1.421       .  A
C1083      C1088   1.428       .  A
C1084      C1085   1.412       .  A
C1084     Br1096   1.932       .  S
C1085      C1086   1.407       .  A
C1085     Br1100   1.931       .  S
C1086      C1087   1.401       .  A
C1086      C1089   1.483       .  S
C1087      C1088   1.405       .  A
C1087     Br1095   1.935       .  S
C1088     Br1099   1.936       .  S
C1089      C1090   1.409       .  A
C1089      C1094   1.408       .  A
C1090      C1091   1.405       .  A
C1090     Br1101   1.932       .  S
C1091      C1092   1.409       .  A
C1091     Br1097   1.930       .  S
C1092      C1093   1.413       .  A
C1093      C1094   1.409       .  A
C1093     Br1102   1.929       .  S
C1094     Br1098   1.928       .  S
C1103      C1104   1.412       .  A
C1103      C1108   1.415       .  A
C1104      C1105   1.406       .  A
C1104     Br1116   1.931       .  S
C1105      C1106   1.409       .  A
C1105     Br1120   1.932       .  S
C1106      C1107   1.409       .  A
C1106      C1109   1.486       .  S
C1107      C1108   1.410       .  A
C1107     Br1115   1.930       .  S
C1108     Br1119   1.930       .  S
C1109      C1110   1.410       .  A
C1109      C1114   1.403       .  A
C1110      C1111   1.413       .  A
C1110     Br1121   1.930       .  S
C1111      C1112   1.417       .  A
C1111     Br1117   1.930       .  S
C1112      C1113   1.425       .  A
C1113      C1114   1.404       .  A
C1113     Br1122   1.939       .  S
C1114     Br1118   1.935       .  S
C1123      C1124   1.409       .  A
C1123      C1128   1.415       .  A
C1124      C1125   1.411       .  A
C1124     Br1136   1.928       .  S
C1125      C1126   1.413       .  A
C1125     Br1140   1.931       .  S
C1126      C1127   1.409       .  A
C1126      C1129   1.494       .  S
C1127      C1128   1.412       .  A
C1127     Br1135   1.928       .  S
C1128     Br1139   1.931       .  S
C1129      C1130   1.409       .  A
C1129      C1134   1.412       .  A
C1130      C1131   1.409       .  A
C1130     Br1141   1.928       .  S
C1131      C1132   1.411       .  A
C1131     Br1137   1.927       .  S
C1132      C1133   1.409   1_554  A
C1133      C1134   1.412   1_556  A
C1133     Br1142   1.928       .  S
C1134     Br1138   1.928   1_554  S
C1143      C1144   1.412       .  A
C1143      C1148   1.411       .  A
C1144      C1145   1.412       .  A
C1144     Br1156   1.929       .  S
C1145      C1146   1.411       .  A
C1145     Br1160   1.929       .  S
C1146      C1147   1.412       .  A
C1146      C1149   1.498       .  S
C1147      C1148   1.413       .  A
C1147     Br1155   1.929   1_556  S
C1148     Br1159   1.928   1_556  S
C1149      C1150   1.413       .  A
C1149      C1154   1.410       .  A
C1150      C1151   1.414       .  A
C1150     Br1161   1.929   1_556  S
C1151      C1152   1.412       .  A
C1151     Br1157   1.930   1_556  S
C1152      C1153   1.414       .  A
C1153      C1154   1.412       .  A
C1153     Br1162   1.931       .  S
C1154     Br1158   1.930       .  S
C1163      C1164   1.406       .  A
C1163      C1168   1.411       .  A
C1164      C1165   1.407       .  A
C1164     Br1176   1.928       .  S
C1165      C1166   1.411       .  A
C1165     Br1180   1.929       .  S
C1166      C1167   1.408       .  A
C1166      C1169   1.483       .  S
C1167      C1168   1.406       .  A
C1167     Br1175   1.930       .  S
C1168     Br1179   1.930       .  S
C1169      C1170   1.404       .  A
C1169      C1174   1.410       .  A
C1170      C1171   1.404       .  A
C1170     Br1181   1.932       .  S
C1171      C1172   1.418       .  A
C1171     Br1177   1.935       .  S
C1172      C1173   1.414       .  A
C1173      C1174   1.411       .  A
C1173     Br1182   1.929       .  S
C1174     Br1178   1.929       .  S
C1183      C1184   1.414       .  A
C1183      C1188   1.408       .  A
C1184      C1185   1.407       .  A
C1184     Br1196   1.930       .  S
C1185      C1186   1.406       .  A
C1185     Br1200   1.929       .  S
C1186      C1187   1.410       .  A
C1186      C1189   1.483       .  S
C1187      C1188   1.407       .  A
C1187     Br1195   1.931   1_455  S
C1188     Br1199   1.924   1_455  S
C1189      C1190   1.410       .  A
C1189      C1194   1.408       .  A
C1190      C1191   1.406       .  A
C1190     Br1201   1.930       .  S
C1191      C1192   1.407       .  A
C1191     Br1197   1.928       .  S
C1192      C1193   1.411       .  A
C1193      C1194   1.408       .  A
C1193     Br1202   1.929       .  S
C1194     Br1198   1.928       .  S
C1203      C1204   1.411       .  A
C1203      C1208   1.407       .  A
C1204      C1205   1.409       .  A
C1204     Br1216   1.927       .  S
C1205      C1206   1.409       .  A
C1205     Br1220   1.929       .  S
C1206      C1207   1.411       .  A
C1206      C1209   1.488       .  S
C1207      C1208   1.408       .  A
C1207     Br1215   1.930       .  S
C1208     Br1219   1.927       .  S
C1209      C1210   1.412       .  A
C1209      C1214   1.409       .  A
C1210      C1211   1.410       .  A
C1210     Br1221   1.929   1_655  S
C1211      C1212   1.408       .  A
C1211     Br1217   1.928   1_655  S
C1212      C1213   1.408       .  A
C1213      C1214   1.407       .  A
C1213     Br1222   1.927       .  S
C1214     Br1218   1.928       .  S
C1223      C1224   1.421       .  A
C1223      C1228   1.416       .  A
C1224      C1225   1.408       .  A
C1224     Br1236   1.935       .  S
C1225      C1226   1.405       .  A
C1225     Br1240   1.931       .  S
C1226      C1227   1.410       .  A
C1226      C1229   1.493       .  S
C1227      C1228   1.415       .  A
C1227     Br1235   1.929       .  S
C1228     Br1239   1.925       .  S
C1229      C1230   1.411       .  A
C1229      C1234   1.411       .  A
C1230      C1231   1.412       .  A
C1230     Br1241   1.928       .  S
C1231      C1232   1.412       .  A
C1231     Br1237   1.928       .  S
C1232      C1233   1.408       .  A
C1233      C1234   1.409       .  A
C1233     Br1242   1.929       .  S
C1234     Br1238   1.929       .  S
C1243      C1244   1.412       .  A
C1243      C1248   1.409   1_554  A
C1244      C1245   1.408       .  A
C1244     Br1256   1.930       .  S
C1245      C1246   1.409       .  A
C1245     Br1260   1.930       .  S
C1246      C1247   1.410   1_554  A
C1246      C1249   1.486       .  S
C1247      C1248   1.408       .  A
C1247     Br1255   1.929       .  S
C1248     Br1259   1.929       .  S
C1249      C1250   1.404       .  A
C1249      C1254   1.410   1_554  A
C1250      C1251   1.404       .  A
C1250     Br1261   1.933       .  S
C1251      C1252   1.419       .  A
C1251     Br1257   1.936       .  S
C1252      C1253   1.415   1_554  A
C1253      C1254   1.414       .  A
C1253     Br1262   1.926       .  S
C1254     Br1258   1.929       .  S
C1263      C1264   1.418       .  A
C1263      C1268   1.415       .  A
C1264      C1265   1.406       .  A
C1264     Br1276   1.929   1_556  S
C1265      C1266   1.405       .  A
C1265     Br1280   1.932       .  S
C1266      C1267   1.410       .  A
C1266      C1269   1.488       .  S
C1267      C1268   1.412       .  A
C1267     Br1275   1.929       .  S
C1268     Br1279   1.930       .  S
C1269      C1270   1.411       .  A
C1269      C1274   1.407       .  A
C1270      C1271   1.410       .  A
C1270     Br1281   1.929       .  S
C1271      C1272   1.409       .  A
C1271     Br1277   1.928       .  S
C1272      C1273   1.414       .  A
C1273      C1274   1.408       .  A
C1273     Br1282   1.930       .  S
C1274     Br1278   1.930       .  S
C1283      C1284   1.409       .  A
C1283      C1288   1.414       .  A
C1284      C1285   1.410       .  A
C1284     Br1296   1.928       .  S
C1285      C1286   1.411       .  A
C1285     Br1300   1.929       .  S
C1286      C1287   1.408       .  A
C1286      C1289   1.488       .  S
C1287      C1288   1.408       .  A
C1287     Br1295   1.930       .  S
C1288     Br1299   1.930       .  S
C1289      C1290   1.405       .  A
C1289      C1294   1.409       .  A
C1290      C1291   1.406       .  A
C1290     Br1301   1.933       .  S
C1291      C1292   1.420       .  A
C1291     Br1297   1.935       .  S
C1292      C1293   1.417       .  A
C1293      C1294   1.413       .  A
C1293     Br1302   1.931       .  S
C1294     Br1298   1.929       .  S
C1303      C1304   1.415       .  A
C1303      C1308   1.412       .  A
C1304      C1305   1.405       .  A
C1304     Br1316   1.933       .  S
C1305      C1306   1.406       .  A
C1305     Br1320   1.932       .  S
C1306      C1307   1.409       .  A
C1306      C1309   1.480       .  S
C1307      C1308   1.407       .  A
C1307     Br1315   1.929       .  S
C1308     Br1319   1.931       .  S
C1309      C1310   1.408       .  A
C1309      C1314   1.409       .  A
C1310      C1311   1.406       .  A
C1310     Br1321   1.930       .  S
C1311      C1312   1.410       .  A
C1311     Br1317   1.929       .  S
C1312      C1313   1.406       .  A
C1313      C1314   1.406       .  A
C1313     Br1322   1.928       .  S
C1314     Br1318   1.929       .  S
C1323      C1324   1.413       .  A
C1323      C1328   1.410   1_545  A
C1324      C1325   1.405       .  A
C1324     Br1336   1.931       .  S
C1325      C1326   1.406       .  A
C1325     Br1340   1.930       .  S
C1326      C1327   1.411       .  A
C1326      C1329   1.484       .  S
C1327      C1328   1.410   1_545  A
C1327     Br1335   1.928   1_545  S
C1328     Br1339   1.929       .  S
C1329      C1330   1.408       .  A
C1329      C1334   1.410       .  A
C1330      C1331   1.409       .  A
C1330     Br1341   1.928       .  S
C1331      C1332   1.411       .  A
C1331     Br1337   1.929       .  S
C1332      C1333   1.407       .  A
C1333      C1334   1.406       .  A
C1333     Br1342   1.930       .  S
C1334     Br1338   1.931       .  S
C1343      C1344   1.411       .  A
C1343      C1348   1.411       .  A
C1344      C1345   1.407       .  A
C1344     Br1356   1.931       .  S
C1345      C1346   1.408       .  A
C1345     Br1360   1.929       .  S
C1346      C1347   1.411       .  A
C1346      C1349   1.489       .  S
C1347      C1348   1.411       .  A
C1347     Br1355   1.929   1_565  S
C1348     Br1359   1.930   1_565  S
C1349      C1350   1.408       .  A
C1349      C1354   1.412       .  A
C1350      C1351   1.407       .  A
C1350     Br1361   1.930       .  S
C1351      C1352   1.412       .  A
C1351     Br1357   1.930       .  S
C1352      C1353   1.408       .  A
C1353      C1354   1.411       .  A
C1353     Br1362   1.928       .  S
C1354     Br1358   1.928       .  S
C1363      C1364   1.418       .  A
C1363      C1368   1.413       .  A
C1364      C1365   1.406       .  A
C1364     Br1376   1.935       .  S
C1365      C1366   1.405       .  A
C1365     Br1380   1.931       .  S
C1366      C1367   1.410       .  A
C1366      C1369   1.486       .  S
C1367      C1368   1.411       .  A
C1367     Br1375   1.929       .  S
C1368     Br1379   1.929       .  S
C1369      C1370   1.409       .  A
C1369      C1374   1.409       .  A
C1370      C1371   1.407       .  A
C1370     Br1381   1.930       .  S
C1371      C1372   1.411       .  A
C1371     Br1377   1.930       .  S
C1372      C1373   1.412       .  A
C1373      C1374   1.410       .  A
C1373     Br1382   1.929       .  S
C1374     Br1378   1.929       .  S
C1383      C1384   1.415       .  A
C1383      C1388   1.410       .  A
C1384      C1385   1.400       .  A
C1384     Br1396   1.935       .  S
C1385      C1386   1.405       .  A
C1385     Br1400   1.932       .  S
C1386      C1387   1.412       .  A
C1386      C1389   1.481       .  S
C1387      C1388   1.410       .  A
C1387     Br1395   1.928   1_545  S
C1388     Br1399   1.928   1_545  S
C1389      C1390   1.410   1_545  A
C1389      C1394   1.408       .  A
C1390      C1391   1.405       .  A
C1390     Br1401   1.931       .  S
C1391      C1392   1.408   1_565  A
C1391     Br1397   1.930       .  S
C1392      C1393   1.414       .  A
C1393      C1394   1.407       .  A
C1393     Br1402   1.930       .  S
C1394     Br1398   1.931       .  S
C1403      C1404   1.407       .  A
C1403      C1408   1.411       .  A
C1404      C1405   1.406       .  A
C1404     Br1416   1.929       .  S
C1405      C1406   1.410       .  A
C1405     Br1420   1.930       .  S
C1406      C1407   1.410       .  A
C1406      C1409   1.485       .  S
C1407      C1408   1.408       .  A
C1407     Br1415   1.929       .  S
C1408     Br1419   1.929       .  S
C1409      C1410   1.405       .  A
C1409      C1414   1.412       .  A
C1410      C1411   1.405       .  A
C1410     Br1421   1.932       .  S
C1411      C1412   1.417       .  A
C1411     Br1417   1.934       .  S
C1412      C1413   1.411       .  A
C1413      C1414   1.411       .  A
C1413     Br1422   1.929       .  S
C1414     Br1418   1.929       .  S
C1423      C1424   1.413       .  A
C1423      C1428   1.408       .  A
C1424      C1425   1.409       .  A
C1424     Br1436   1.930       .  S
C1425      C1426   1.409       .  A
C1425     Br1440   1.929       .  S
C1426      C1427   1.411       .  A
C1426      C1429   1.488       .  S
C1427      C1428   1.409       .  A
C1427     Br1435   1.929       .  S
C1428     Br1439   1.928       .  S
C1429      C1430   1.406       .  A
C1429      C1434   1.411       .  A
C1430      C1431   1.406       .  A
C1430     Br1441   1.932       .  S
C1431      C1432   1.417       .  A
C1431     Br1437   1.935       .  S
C1432      C1433   1.412       .  A
C1433      C1434   1.413       .  A
C1433     Br1442   1.929       .  S
C1434     Br1438   1.928       .  S
C1443      C1444   1.409       .  A
C1443      C1448   1.415       .  A
C1444      C1445   1.411       .  A
C1444     Br1456   1.928       .  S
C1445      C1446   1.412       .  A
C1445     Br1460   1.929       .  S
C1446      C1447   1.408       .  A
C1446      C1449   1.491       .  S
C1447      C1448   1.408       .  A
C1447     Br1455   1.930       .  S
C1448     Br1459   1.933       .  S
C1449      C1450   1.407       .  A
C1449      C1454   1.412       .  A
C1450      C1451   1.407       .  A
C1450     Br1461   1.931       .  S
C1451      C1452   1.411       .  A
C1451     Br1457   1.923       .  S
C1452      C1453   1.412       .  A
C1453      C1454   1.414       .  A
C1453     Br1462   1.928       .  S
C1454     Br1458   1.928       .  S
C1463      C1464   1.416       .  A
C1463      C1468   1.413       .  A
C1464      C1465   1.406       .  A
C1464     Br1476   1.933       .  S
C1465      C1466   1.406       .  A
C1465     Br1480   1.931       .  S
C1466      C1467   1.410       .  A
C1466      C1469   1.487       .  S
C1467      C1468   1.411       .  A
C1467     Br1475   1.929       .  S
C1468     Br1479   1.929       .  S
C1469      C1470   1.409       .  A
C1469      C1474   1.409       .  A
C1470      C1471   1.411       .  A
C1470     Br1481   1.928       .  S
C1471      C1472   1.413       .  A
C1471     Br1477   1.930       .  S
C1472      C1473   1.410       .  A
C1473      C1474   1.406       .  A
C1473     Br1482   1.931       .  S
C1474     Br1478   1.931       .  S
C1483      C1484   1.412       .  A
C1483      C1488   1.413       .  A
C1484      C1485   1.415       .  A
C1484     Br1496   1.929       .  S
C1485      C1486   1.411       .  A
C1485     Br1500   1.927       .  S
C1486      C1487   1.409       .  A
C1486      C1489   1.494       .  S
C1487      C1488   1.408       .  A
C1487     Br1495   1.932       .  S
C1488     Br1499   1.931   1_655  S
C1489      C1490   1.410       .  A
C1489      C1494   1.407       .  A
C1490      C1491   1.412       .  A
C1490     Br1501   1.929       .  S
C1491      C1492   1.414       .  A
C1491     Br1497   1.929       .  S
C1492      C1493   1.420       .  A
C1493      C1494   1.411       .  A
C1493     Br1502   1.934       .  S
C1494     Br1498   1.930       .  S
C1503      C1504   1.412       .  A
C1503      C1508   1.414       .  A
C1504      C1505   1.411       .  A
C1504     Br1516   1.930       .  S
C1505      C1506   1.410       .  A
C1505     Br1520   1.928       .  S
C1506      C1507   1.409       .  A
C1506      C1509   1.491       .  S
C1507      C1508   1.409       .  A
C1507     Br1515   1.930   1_455  S
C1508     Br1519   1.931   1_455  S
C1509      C1510   1.411       .  A
C1509      C1514   1.409       .  A
C1510      C1511   1.411       .  A
C1510     Br1521   1.929       .  S
C1511      C1512   1.410       .  A
C1511     Br1517   1.928       .  S
C1512      C1513   1.415       .  A
C1513      C1514   1.410       .  A
C1513     Br1522   1.932       .  S
C1514     Br1518   1.930       .  S
C1523      C1524   1.413       .  A
C1523      C1528   1.415       .  A
C1524      C1525   1.411       .  A
C1524     Br1536   1.930   1_655  S
C1525      C1526   1.410       .  A
C1525     Br1540   1.929   1_655  S
C1526      C1527   1.407       .  A
C1526      C1529   1.488       .  S
C1527      C1528   1.407       .  A
C1527     Br1535   1.931       .  S
C1528     Br1539   1.932       .  S
C1529      C1530   1.411       .  A
C1529      C1534   1.409       .  A
C1530      C1531   1.408       .  A
C1530     Br1541   1.931       .  S
C1531      C1532   1.408       .  A
C1531     Br1537   1.928       .  S
C1532      C1533   1.412       .  A
C1533      C1534   1.410       .  A
C1533     Br1542   1.927       .  S
C1534     Br1538   1.929       .  S
C1543      C1544   1.429       .  A
C1543      C1548   1.425       .  A
C1544      C1545   1.407       .  A
C1544     Br1556   1.938   1_455  S
C1545      C1546   1.402       .  A
C1545     Br1560   1.936       .  S
C1546      C1547   1.405       .  A
C1546      C1549   1.486       .  S
C1547      C1548   1.413       .  A
C1547     Br1555   1.932       .  S
C1548     Br1559   1.933       .  S
C1549      C1550   1.409       .  A
C1549      C1554   1.408       .  A
C1550      C1551   1.408       .  A
C1550     Br1561   1.930       .  S
C1551      C1552   1.411       .  A
C1551     Br1557   1.930       .  S
C1552      C1553   1.413       .  A
C1553      C1554   1.408       .  A
C1553     Br1562   1.930       .  S
C1554     Br1558   1.930       .  S
C1563      C1564   1.411       .  A
C1563      C1568   1.412       .  A
C1564      C1565   1.412       .  A
C1564     Br1576   1.929       .  S
C1565      C1566   1.412       .  A
C1565     Br1580   1.928       .  S
C1566      C1567   1.407       .  A
C1566      C1569   1.489       .  S
C1567      C1568   1.406       .  A
C1567     Br1575   1.930       .  S
C1568     Br1579   1.930       .  S
C1569      C1570   1.411       .  A
C1569      C1574   1.409       .  A
C1570      C1571   1.411       .  A
C1570     Br1581   1.929       .  S
C1571      C1572   1.409       .  A
C1571     Br1577   1.928       .  S
C1572      C1573   1.413       .  A
C1573      C1574   1.408       .  A
C1573     Br1582   1.929       .  S
C1574     Br1578   1.930       .  S
C1583      C1584   1.405       .  A
C1583      C1588   1.411       .  A
C1584      C1585   1.405       .  A
C1584     Br1596   1.929       .  S
C1585      C1586   1.410       .  A
C1585     Br1600   1.930       .  S
C1586      C1587   1.408       .  A
C1586      C1589   1.480       .  S
C1587      C1588   1.406       .  A
C1587     Br1595   1.930       .  S
C1588     Br1599   1.929       .  S
C1589      C1590   1.401       .  A
C1589      C1594   1.407       .  A
C1590      C1591   1.404       .  A
C1590     Br1601   1.935       .  S
C1591      C1592   1.426       .  A
C1591     Br1597   1.939       .  S
C1592      C1593   1.419       .  A
C1593      C1594   1.410       .  A
C1593     Br1602   1.930       .  S
C1594     Br1598   1.931       .  S
C1603      C1604   1.407       .  A
C1603      C1608   1.412       .  A
C1604      C1605   1.408       .  A
C1604     Br1616   1.928       .  S
C1605      C1606   1.412       .  A
C1605     Br1620   1.931       .  S
C1606      C1607   1.409       .  A
C1606      C1609   1.488       .  S
C1607      C1608   1.409       .  A
C1607     Br1615   1.928       .  S
C1608     Br1619   1.930       .  S
C1609      C1610   1.411       .  A
C1609      C1614   1.407       .  A
C1610      C1611   1.412       .  A
C1610     Br1621   1.928       .  S
C1611      C1612   1.411       .  A
C1611     Br1617   1.928       .  S
C1612      C1613   1.415       .  A
C1613      C1614   1.406       .  A
C1613     Br1622   1.932       .  S
C1614     Br1618   1.931       .  S
C1623      C1624   1.411       .  A
C1623      C1628   1.409       .  A
C1624      C1625   1.407       .  A
C1624     Br1636   1.931       .  S
C1625      C1626   1.408       .  A
C1625     Br1640   1.929       .  S
C1626      C1627   1.412       .  A
C1626      C1629   1.490       .  S
C1627      C1628   1.411       .  A
C1627     Br1635   1.928       .  S
C1628     Br1639   1.929       .  S
C1629      C1630   1.411       .  A
C1629      C1634   1.408       .  A
C1630      C1631   1.411       .  A
C1630     Br1641   1.929       .  S
C1631      C1632   1.410       .  A
C1631     Br1637   1.928       .  S
C1632      C1633   1.414       .  A
C1633      C1634   1.409       .  A
C1633     Br1642   1.930       .  S
C1634     Br1638   1.930       .  S
C1643      C1644   1.412       .  A
C1643      C1648   1.409       .  A
C1644      C1645   1.408       .  A
C1644     Br1656   1.930       .  S
C1645      C1646   1.410       .  A
C1645     Br1660   1.930   1_554  S
C1646      C1647   1.411       .  A
C1646      C1649   1.486       .  S
C1647      C1648   1.407       .  A
C1647     Br1655   1.931       .  S
C1648     Br1659   1.930       .  S
C1649      C1650   1.411       .  A
C1649      C1654   1.406       .  A
C1650      C1651   1.412       .  A
C1650     Br1661   1.930       .  S
C1651      C1652   1.414       .  A
C1651     Br1657   1.929       .  S
C1652      C1653   1.418   1_554  A
C1653      C1654   1.404   1_556  A
C1653     Br1662   1.935       .  S
C1654     Br1658   1.933   1_554  S
C1663      C1664   1.415       .  A
C1663      C1668   1.410       .  A
C1664      C1665   1.405       .  A
C1664     Br1676   1.934   1_556  S
C1665      C1666   1.407       .  A
C1665     Br1680   1.932   1_556  S
C1666      C1667   1.411       .  A
C1666      C1669   1.487       .  S
C1667      C1668   1.411       .  A
C1667     Br1675   1.928       .  S
C1668     Br1679   1.928       .  S
C1669      C1670   1.411       .  A
C1669      C1674   1.406       .  A
C1670      C1671   1.411       .  A
C1670     Br1681   1.930       .  S
C1671      C1672   1.414       .  A
C1671     Br1677   1.930       .  S
C1672      C1673   1.417       .  A
C1673      C1674   1.406       .  A
C1673     Br1682   1.933       .  S
C1674     Br1678   1.932       .  S
C1683      C1684   1.415       .  A
C1683      C1688   1.417       .  A
C1684      C1685   1.411       .  A
C1684     Br1696   1.931       .  S
C1685      C1686   1.409       .  A
C1685     Br1700   1.929       .  S
C1686      C1687   1.407       .  A
C1686      C1689   1.488       .  S
C1687      C1688   1.407       .  A
C1687     Br1695   1.932   1_554  S
C1688     Br1699   1.934   1_554  S
C1689      C1690   1.411       .  A
C1689      C1694   1.408       .  A
C1690      C1691   1.408       .  A
C1690     Br1701   1.931       .  S
C1691      C1692   1.408       .  A
C1691     Br1697   1.928       .  S
C1692      C1693   1.415       .  A
C1693      C1694   1.410       .  A
C1693     Br1702   1.931       .  S
C1694     Br1698   1.929       .  S
C1703      C1704   1.411       .  A
C1703      C1708   1.406       .  A
C1704      C1705   1.408       .  A
C1704     Br1716   1.928       .  S
C1705      C1706   1.409       .  A
C1705     Br1720   1.929       .  S
C1706      C1707   1.411       .  A
C1706      C1709   1.486       .  S
C1707      C1708   1.408       .  A
C1707     Br1715   1.929       .  S
C1708     Br1719   1.928       .  S
C1709      C1710   1.406       .  A
C1709      C1714   1.411       .  A
C1710      C1711   1.407       .  A
C1710     Br1721   1.930   1_556  S
C1711      C1712   1.416       .  A
C1711     Br1717   1.932   1_556  S
C1712      C1713   1.412       .  A
C1713      C1714   1.410       .  A
C1713     Br1722   1.929       .  S
C1714     Br1718   1.930       .  S
C1723      C1724   1.413       .  A
C1723      C1728   1.410       .  A
C1724      C1725   1.404       .  A
C1724     Br1736   1.933       .  S
C1725      C1726   1.406       .  A
C1725     Br1740   1.932       .  S
C1726      C1727   1.411       .  A
C1726      C1729   1.483       .  S
C1727      C1728   1.410       .  A
C1727     Br1735   1.929       .  S
C1728     Br1739   1.930       .  S
C1729      C1730   1.409       .  A
C1729      C1734   1.409       .  A
C1730      C1731   1.406       .  A
C1730     Br1741   1.930       .  S
C1731      C1732   1.409       .  A
C1731     Br1737   1.929       .  S
C1732      C1733   1.411       .  A
C1733      C1734   1.408       .  A
C1733     Br1742   1.929       .  S
C1734     Br1738   1.930       .  S
C1743      C1744   1.413       .  A
C1743      C1748   1.414       .  A
C1744      C1745   1.409       .  A
C1744     Br1756   1.930       .  S
C1745      C1746   1.409       .  A
C1745     Br1760   1.931       .  S
C1746      C1747   1.410       .  A
C1746      C1749   1.491       .  S
C1747      C1748   1.412       .  A
C1747     Br1755   1.929       .  S
C1748     Br1759   1.929       .  S
C1749      C1750   1.408       .  A
C1749      C1754   1.403       .  A
C1750      C1751   1.414       .  A
C1750     Br1761   1.930       .  S
C1751      C1752   1.423       .  A
C1751     Br1757   1.933       .  S
C1752      C1753   1.428       .  A
C1753      C1754   1.408       .  A
C1753     Br1762   1.937       .  S
C1754     Br1758   1.935       .  S
C1763      C1764   1.410       .  A
C1763      C1768   1.407       .  A
C1764      C1765   1.409       .  A
C1764     Br1776   1.930       .  S
C1765      C1766   1.411       .  A
C1765     Br1780   1.930       .  S
C1766      C1767   1.412       .  A
C1766      C1769   1.488       .  S
C1767      C1768   1.407       .  A
C1767     Br1775   1.930       .  S
C1768     Br1779   1.929       .  S
C1769      C1770   1.410       .  A
C1769      C1774   1.411       .  A
C1770      C1771   1.407       .  A
C1770     Br1781   1.931       .  S
C1771      C1772   1.412       .  A
C1771     Br1777   1.932       .  S
C1772      C1773   1.411       .  A
C1773      C1774   1.409       .  A
C1773     Br1782   1.931       .  S
C1774     Br1778   1.930       .  S
C1783      C1784   1.412       .  A
C1783      C1788   1.408       .  A
C1784      C1785   1.413       .  A
C1784     Br1796   1.928       .  S
C1785      C1786   1.410       .  A
C1785     Br1800   1.928       .  S
C1786      C1787   1.411       .  A
C1786      C1789   1.493       .  S
C1787      C1788   1.409       .  A
C1787     Br1795   1.930       .  S
C1788     Br1799   1.928       .  S
C1789      C1790   1.411       .  A
C1789      C1794   1.408       .  A
C1790      C1791   1.412       .  A
C1790     Br1801   1.930       .  S
C1791      C1792   1.409       .  A
C1791     Br1797   1.921       .  S
C1792      C1793   1.415       .  A
C1793      C1794   1.410       .  A
C1793     Br1802   1.930       .  S
C1794     Br1798   1.929       .  S
C1803      C1804   1.408       .  A
C1803      C1808   1.411       .  A
C1804      C1805   1.410       .  A
C1804     Br1816   1.928       .  S
C1805      C1806   1.413       .  A
C1805     Br1820   1.931       .  S
C1806      C1807   1.410       .  A
C1806      C1809   1.491       .  S
C1807      C1808   1.409       .  A
C1807     Br1815   1.930       .  S
C1808     Br1819   1.930       .  S
C1809      C1810   1.411       .  A
C1809      C1814   1.409       .  A
C1810      C1811   1.412       .  A
C1810     Br1821   1.930       .  S
C1811      C1812   1.415       .  A
C1811     Br1817   1.931       .  S
C1812      C1813   1.415       .  A
C1813      C1814   1.407       .  A
C1813     Br1822   1.934       .  S
C1814     Br1818   1.932       .  S
C1823      C1824   1.414       .  A
C1823      C1828   1.420       .  A
C1824      C1825   1.409       .  A
C1824     Br1836   1.931       .  S
C1825      C1826   1.410       .  A
C1825     Br1840   1.932       .  S
C1826      C1827   1.406       .  A
C1826      C1829   1.487       .  S
C1827      C1828   1.407       .  A
C1827     Br1835   1.932       .  S
C1828     Br1839   1.933       .  S
C1829      C1830   1.412       .  A
C1829      C1834   1.409       .  A
C1830      C1831   1.411       .  A
C1830     Br1841   1.929       .  S
C1831      C1832   1.409       .  A
C1831     Br1837   1.928       .  S
C1832      C1833   1.411       .  A
C1833      C1834   1.404       .  A
C1833     Br1842   1.930       .  S
C1834     Br1838   1.932       .  S
C1843      C1844   1.410       .  A
C1843      C1848   1.407       .  A
C1844      C1845   1.407       .  A
C1844     Br1856   1.927       .  S
C1845      C1846   1.409       .  A
C1845     Br1860   1.929       .  S
C1846      C1847   1.413       .  A
C1846      C1849   1.489       .  S
C1847      C1848   1.410       .  A
C1847     Br1855   1.929       .  S
C1848     Br1859   1.927       .  S
C1849      C1850   1.409       .  A
C1849      C1854   1.411       .  A
C1850      C1851   1.408       .  A
C1850     Br1861   1.931       .  S
C1851      C1852   1.413       .  A
C1851     Br1857   1.931       .  S
C1852      C1853   1.411       .  A
C1853      C1854   1.410       .  A
C1853     Br1862   1.927       .  S
C1854     Br1858   1.929       .  S
C1863      C1864   1.417       .  A
C1863      C1868   1.412       .  A
C1864      C1865   1.407       .  A
C1864     Br1876   1.929       .  S
C1865      C1866   1.405       .  A
C1865     Br1880   1.931       .  S
C1866      C1867   1.410       .  A
C1866      C1869   1.487       .  S
C1867      C1868   1.411       .  A
C1867     Br1875   1.930       .  S
C1868     Br1879   1.929       .  S
C1869      C1870   1.411       .  A
C1869      C1874   1.408       .  A
C1870      C1871   1.410       .  A
C1870     Br1881   1.929       .  S
C1871      C1872   1.410       .  A
C1871     Br1877   1.929       .  S
C1872      C1873   1.410       .  A
C1873      C1874   1.407       .  A
C1873     Br1882   1.931       .  S
C1874     Br1878   1.929       .  S
C1883      C1884   1.458       .  A
C1883      C1888   1.458       .  A
C1884      C1885   1.422       .  A
C1884     Br1896   1.939   1_455  S
C1885      C1886   1.404       .  A
C1885     Br1900   1.938       .  S
C1886      C1887   1.403       .  A
C1886      C1889   1.524       .  S
C1887      C1888   1.428       .  A
C1887     Br1895   1.936       .  S
C1888     Br1899   1.928   1_556  S
C1889      C1890   1.413       .  A
C1889      C1894   1.411       .  A
C1890      C1891   1.424       .  A
C1890     Br1901   1.929       .  S
C1891      C1892   1.431       .  A
C1891     Br1897   1.936       .  S
C1892      C1893   1.431       .  A
C1893      C1894   1.419       .  A
C1893     Br1902   1.933       .  S
C1894     Br1898   1.932       .  S
C1903      C1904   1.460       .  A
C1903      C1908   1.457       .  A
C1904      C1905   1.426       .  A
C1904     Br1916   1.935   1_554  S
C1905      C1906   1.400       .  A
C1905     Br1920   1.939       .  S
C1906      C1907   1.400       .  A
C1906      C1909   1.517       .  S
C1907      C1908   1.425       .  A
C1907     Br1915   1.939       .  S
C1908     Br1919   1.925   1_565  S
C1909      C1910   1.408       .  A
C1909      C1914   1.411       .  A
C1910      C1911   1.419       .  A
C1910     Br1921   1.932       .  S
C1911      C1912   1.431       .  A
C1911     Br1917   1.933       .  S
C1912      C1913   1.429       .  A
C1913      C1914   1.420       .  A
C1913     Br1922   1.937       .  S
C1914     Br1918   1.927       .  S
C1923      C1924   1.430       .  A
C1923      C1928   1.431       .  A
C1924      C1925   1.421       .  A
C1924     Br1936   1.934       .  S
C1925      C1926   1.411       .  A
C1925     Br1940   1.929       .  S
C1926      C1927   1.410       .  A
C1926      C1929   1.520       .  S
C1927      C1928   1.420       .  A
C1927     Br1935   1.931       .  S
C1928     Br1939   1.935       .  S
C1929      C1930   1.403       .  A
C1929      C1934   1.400       .  A
C1930      C1931   1.427   1_545  A
C1930     Br1941   1.938   1_545  S
C1931      C1932   1.455   1_565  A
C1931     Br1937   1.932       .  S
C1932      C1933   1.465       .  A
C1933      C1934   1.428       .  A
C1933     Br1942   1.943       .  S
C1934     Br1938   1.944       .  S
C1943      C1944   1.431       .  A
C1943      C1948   1.433       .  A
C1944      C1945   1.418       .  A
C1944     Br1956   1.936       .  S
C1945      C1946   1.408       .  A
C1945     Br1960   1.929       .  S
C1946      C1947   1.408       .  A
C1946      C1949   1.514       .  S
C1947      C1948   1.420       .  A
C1947     Br1955   1.933       .  S
C1948     Br1959   1.934       .  S
C1949      C1950   1.397       .  A
C1949      C1954   1.401       .  A
C1950      C1951   1.424       .  A
C1950     Br1961   1.942       .  S
C1951      C1952   1.462       .  A
C1951     Br1957   1.937   1_445  S
C1952      C1953   1.454   1_554  A
C1953      C1954   1.425   1_556  A
C1953     Br1962   1.929       .  S
C1954     Br1958   1.937   1_554  S
