geometry optimzed in LAMMPS
_audit_creation_date              2020-11-30 
_audit_creation_method            'lammps2cif' 
_symmetry_space_group_name_H-M    'P1' 
_symmetry_Int_Tables_number       1 
_symmetry_cell_setting            triclinic 
loop_ 
_symmetry_equiv_pos_as_xyz 
  x,y,z 
_cell_length_a                    35.12942221 
_cell_length_b                    34.43835206182234 
_cell_length_c                    25.76335816540327 
_cell_angle_alpha                 90.15704685384591 
_cell_angle_beta                  90.36072677444795 
_cell_angle_gamma                 86.57231917112561 
loop_ 
_atom_site_label 
_atom_site_type_symbol 
_atom_site_fract_x 
_atom_site_fract_y 
_atom_site_fract_z 
_atom_site_charge 
O1          O  0.24382986  0.17824247  0.33733489    -0.80500
O2          O  0.24505715  0.18209696  0.63633949    -0.82000
O3          O  0.28003127  0.12202805  0.49779258    -0.79100
O4          O  0.16348479  0.16550060  0.48914583    -0.77500
O5          O  0.13099533  0.22472728  0.49172413    -0.79200
O6          O  0.33640410  0.15180692  0.49888620    -0.80200
O7          O  0.22714249  0.14294250  0.56974825    -0.81500
O8          O  0.23060793  0.13904318  0.40540301    -0.81800
Eu9        Eu  0.23222300  0.17485219  0.48736481     2.39200
O10         O  0.20624356  0.22377359  0.54199996    -0.89300
O11         O  0.27823569  0.19665711  0.42938523    -0.92900
C12         C  0.23668744  0.14445880  0.35673052     1.01800
C13         C  0.23552684  0.14858196  0.61761893     1.01600
C14         C  0.31628393  0.12168077  0.50349190     1.01600
C15         C  0.13253725  0.18767171  0.49027122     0.99400
H16         H  0.29113447  0.18123236  0.56342785     0.29200
O17         O  0.27842287  0.20093864  0.54185283    -1.01700
H18         H  0.18516298  0.20905482  0.41380052     0.29200
O19         O  0.20450335  0.22203879  0.43270963    -1.04200
O20         O  0.25823144  0.31882619  0.63361670    -0.81500
O21         O  0.25268137  0.31371688  0.33549892    -0.81000
O22         O  0.35885307  0.22614800  0.56499218    -0.79400
O23         O  0.14321491  0.27560962  0.57005517    -0.82800
O24         O  0.14129275  0.27122580  0.40699446    -0.80600
O25         O  0.35856807  0.21979707  0.40261919    -0.79300
O26         O  0.33823683  0.32868844  0.47523870    -0.80800
O27         O  0.21832135  0.37130365  0.46977550    -0.82700
O28         O  0.37146613  0.26947997  0.47564389    -0.79500
O29         O  0.16302638  0.33955932  0.47086236    -0.82100
O30         O  0.32019915  0.24286240  0.63339080    -0.77900
O31         O  0.31822098  0.24222442  0.33757983    -0.77900
O32         O  0.18094969  0.25352389  0.33948372    -0.77500
O33         O  0.18400376  0.25522150  0.63545768    -0.81000
O34         O  0.27342346  0.35876923  0.56671504    -0.80500
O35         O  0.26925859  0.35478615  0.40105464    -0.78800
Eu36       Eu  0.25172554  0.25000827  0.59821551     2.39800
Eu37       Eu  0.24964334  0.24615977  0.37424844     2.39600
Eu38       Eu  0.32346176  0.22283698  0.48466170     2.38400
Eu39       Eu  0.17807728  0.27142527  0.48765590     2.39900
Eu40       Eu  0.26924687  0.32176069  0.48550985     2.39800
O41         O  0.22353675  0.29454446  0.43185432    -0.93200
O42         O  0.29707675  0.27283784  0.53910983    -0.92100
C43         C  0.26635541  0.35272310  0.61502263     1.02000
C44         C  0.26084546  0.34787163  0.35315122     1.00700
C45         C  0.35384285  0.23485567  0.61303692     1.00100
C46         C  0.14983311  0.26512242  0.61749080     1.02100
C47         C  0.14710212  0.26189409  0.35912887     1.01000
C48         C  0.35238323  0.23228025  0.35595875     0.99800
C49         C  0.36903669  0.30650741  0.47017686     0.99900
C50         C  0.18232122  0.36936727  0.46246637     1.02500
H51         H  0.31262972  0.28401938  0.41101777     0.29900
O52         O  0.29419558  0.27180881  0.43195105    -1.05400
H53         H  0.20968642  0.31981465  0.56138029     0.31900
O54         O  0.22279833  0.29889126  0.54234373    -1.07900
N55         N  0.53120195  0.44715691  0.40784191    -0.37000
N56         N  0.03834856  0.03385907  0.36839964    -0.57500
N57         N  0.48325953  0.04263373  0.45943693    -0.37000
N58         N  0.47456704  0.96293709  0.48005376    -0.57500
C59         C  0.04645007  0.45513875  0.36831589     0.26600
C60         C  0.50655167  0.41942178  0.39956919     0.26600
C61         C  0.98852880  0.08172395  0.43729107     0.26600
C62         C  0.44867801  0.04534746  0.48238355     0.26600
C63         C  0.07418407  0.51658426  0.37055711     0.35200
C64         C  0.04631239  0.06974098  0.38391363     0.35200
C65         C  0.47252512  0.42647485  0.48141298     0.35200
C66         C  0.44723719  0.97701556  0.51248356     0.35200
C67         C  0.03170586  0.43171799  0.33055418    -0.22300
C68         C  0.50456434  0.41100088  0.34691199    -0.22300
C69         C  0.96147336  0.10790460  0.45779147    -0.22300
C70         C  0.43334996  0.08344852  0.47778288    -0.22300
C71         C  0.10342913  0.54161860  0.37573336    -0.23300
C72         C  0.08406492  0.07649536  0.37350866    -0.23300
C73         C  0.44601700  0.41599749  0.51807787    -0.23300
C74         C  0.43248026  0.94704102  0.54001563    -0.23300
C75         C  0.07870783  0.47632885  0.36298082    -0.18700
C76         C  0.48562836  0.40308891  0.43928747    -0.18700
C77         C  0.43158032  0.01544826  0.51025559    -0.18700
C78         C  0.02297563  0.09279857  0.41740989    -0.18700
H79         H  0.03838084  0.43125889  0.28966234     0.14200
H80         H  0.48749471  0.38998107  0.32796619     0.14200
H81         H  0.96145266  0.13924669  0.45721497     0.14200
H82         H  0.40692377  0.09629299  0.49196771     0.14200
H83         H  0.13359126  0.53510884  0.37040193     0.12500
H84         H  0.09925822  0.10188126  0.38379803     0.12500
H85         H  0.43705134  0.38727157  0.52670054     0.12500
H86         H  0.40893594  0.94901828  0.56699187     0.12500
H87         H  0.54076336  0.45702364  0.44377254     0.25800
H88         H  0.50395608  0.01975666  0.46093953     0.25800
O89         O  0.50098341  0.43250124  0.83062284    -0.80500
O90         O  0.49878860  0.42895960  0.12947076    -0.82000
O91         O  0.05328348  0.38381097  0.97732835    -0.79100
O92         O  0.43576291  0.39428815  0.00056021    -0.77500
O93         O  0.39436723  0.44692599  0.01229776    -0.79200
O94         O  0.10216368  0.42377072  0.98701452    -0.80200
O95         O  0.49491777  0.38673061  0.06080915    -0.81500
O96         O  0.49569140  0.38847674  0.89655563    -0.81800
Eu97       Eu  0.49540822  0.42260434  0.97940894     2.39200
O98         O  0.46216025  0.46525016  0.03516465    -0.89300
O99         O  0.03550730  0.45854976  0.92949142    -0.92900
C100        C  0.49955764  0.39703957  0.84836808     1.01800
C101        C  0.49652978  0.39420726  0.10970021     1.01600
C102        C  0.08821953  0.38988642  0.98548162     1.01600
C103        C  0.40463743  0.41068390  0.01786947     0.99400
H104        H  0.05274472  0.43787881  0.05991398     0.29200
O105        O  0.03676640  0.45632492  0.04011293    -1.01700
H106        H  0.44133592  0.44860952  0.90505771     0.29200
O107        O  0.45814849  0.46420303  0.92505504    -1.04200
O108        O  0.50093420  0.06707735  0.13173737    -0.81500
O109        O  0.49633432  0.06889791  0.83306971    -0.81000
O110        O  0.11329546  0.48641490  0.06244525    -0.79400
O111        O  0.38788792  0.50816733  0.06291525    -0.82800
O112        O  0.38742630  0.00101915  0.90164725    -0.80600
O113        O  0.10776570  0.99544007  0.90156383    -0.79300
O114        O  0.06004204  0.10285367  0.00064461    -0.80800
O115        O  0.44279390  0.11281061  0.99158349    -0.82700
O116        O  0.10254876  0.05064399  0.01051590    -0.79500
O117        O  0.39530572  0.07034458  0.99354349    -0.82100
O118        O  0.07208430  0.49698421  0.13035510    -0.77900
O119        O  0.06577986  0.00228351  0.83349571    -0.77900
O120        O  0.42980325  0.99966719  0.83403198    -0.77500
O121        O  0.43073864  0.50213160  0.13051822    -0.81000
O122        O  0.50354297  0.10987065  0.06396807    -0.80500
O123        O  0.50163079  0.10983771  0.90218355    -0.78800
Eu124      Eu  0.50043747  0.49764388  0.09493876     2.39800
Eu125      Eu  0.49776717  0.99968205  0.87017546     2.39600
Eu126      Eu  0.07511304  0.49173899  0.98548975     2.38400
Eu127      Eu  0.42359317  0.50602255  0.98286532     2.39900
Eu128      Eu  0.50137310  0.07383365  0.98259197     2.39800
O129        O  0.46060057  0.04135760  0.92692308    -0.93200
O130        O  0.03666297  0.03118850  0.03628774    -0.92100
C131        C  0.50244794  0.10227835  0.11276786     1.02000
C132        C  0.49840623  0.10368512  0.85328260     1.00700
C133        C  0.10665896  0.49273531  0.11061229     1.00100
C134        C  0.39565764  0.50505286  0.11158329     1.02100
C135        C  0.39523223  0.99974254  0.85284884     1.01000
C136        C  0.10045455  0.00048251  0.85305012     0.99800
C137        C  0.09227691  0.08712025  0.01499693     0.99900
C138        C  0.40893852  0.10363412  0.00190414     1.02500
H139        H  0.05440832  0.05112475  0.90963966     0.29900
O140        O  0.03783388  0.03469521  0.92824033    -1.05400
H141        H  0.44862638  0.05586685  0.06009900     0.31900
O142        O  0.46366630  0.03853449  0.03783640    -1.07900
N143        N  0.23991290  0.32163315  0.16919107    -0.37000
N144        N  0.19345323  0.25412256  0.14534887    -0.57500
N145        N  0.25281017  0.19601887  0.14652957    -0.37000
N146        N  0.30057419  0.26019183  0.16316072    -0.57500
C147        C  0.20766248  0.33971138  0.15031014     0.26600
C148        C  0.26883058  0.34261831  0.15354898     0.26600
C149        C  0.22512299  0.17862071  0.12051191     0.26600
C150        C  0.28581907  0.18294069  0.12542777     0.26600
C151        C  0.17080403  0.28387955  0.16259650     0.35200
C152        C  0.17462941  0.22190119  0.15248844     0.35200
C153        C  0.31977886  0.29224584  0.17152388     0.35200
C154        C  0.32640290  0.22982168  0.16697142     0.35200
C155        C  0.21546588  0.37587427  0.13079507    -0.22300
C156        C  0.25450238  0.37725042  0.13172614    -0.22300
C157        C  0.24050386  0.15271806  0.08417962    -0.22300
C158        C  0.27902104  0.15600380  0.08647053    -0.22300
C159        C  0.13771610  0.27023332  0.18282867    -0.23300
C160        C  0.13998116  0.23058059  0.17531216    -0.23300
C161        C  0.35731040  0.28196624  0.18303270    -0.23300
C162        C  0.36148545  0.24223727  0.18177916    -0.23300
C163        C  0.17404259  0.32043693  0.14081542    -0.18700
C164        C  0.30723886  0.32874007  0.15227977    -0.18700
C165        C  0.32168783  0.19483201  0.14088430    -0.18700
C166        C  0.18639935  0.18724306  0.12846171    -0.18700
H167        H  0.19564801  0.39681635  0.11219640     0.14200
H168        H  0.27051656  0.39940442  0.11399180     0.14200
H169        H  0.22564722  0.13458874  0.05740038     0.14200
H170        H  0.29932001  0.14092051  0.06103564     0.14200
H171        H  0.11344536  0.28738393  0.19765360     0.12500
H172        H  0.11882632  0.21027672  0.18452508     0.12500
H173        H  0.37989289  0.30139606  0.18567720     0.12500
H174        H  0.38812454  0.22487288  0.18421000     0.12500
H175        H  0.24213792  0.29454729  0.18714865     0.25800
H176        H  0.24947444  0.21442989  0.17864806     0.25800
C177        C  0.00029971  0.24985105  0.24158625    -0.02800
C178        C  0.25079800  0.49889680  0.23676339    -0.02800
C179        C  0.50210636  0.24904029  0.72592997    -0.02800
C180        C  0.24727306  0.50099874  0.73821397    -0.02800
C181        C  0.14254203  0.49268611  0.19649270    -0.26700
C182        C  0.14252008  0.49731977  0.14282223    -0.14800
C183        C  0.17627425  0.00572568  0.11601025     0.35900
C184        C  0.21019441  0.00762227  0.14582080    -0.26100
C185        C  0.21247138  0.50096838  0.20293981    -0.15400
C186        C  0.17620214  0.49550640  0.22631770     0.37000
N187        N  0.17320640  0.49205409  0.28113209    -0.89600
H188        H  0.11624453  0.48663490  0.21582896     0.18100
H189        H  0.23489108  0.01806560  0.12679937     0.18100
N190        N  0.17728204  0.01662704  0.06241167    -0.88600
H191        H  0.16241129  0.46524311  0.28937284     0.35400
H192        H  0.15343609  0.51388514  0.29340374     0.40500
H193        H  0.19792069  0.99844780  0.04389745     0.40200
H194        H  0.18571636  0.04518787  0.06026102     0.35100
C195        C  0.35678840  0.52237746  0.19318755    -0.26700
C196        C  0.36036805  0.50291866  0.14559807    -0.14800
C197        C  0.32821929  0.48293526  0.12843352     0.35900
C198        C  0.29566959  0.48038845  0.15993004    -0.26100
C199        C  0.28986959  0.50239370  0.20551601    -0.15400
C200        C  0.32151496  0.02201054  0.21966546     0.37000
N201        N  0.31988998  0.04570880  0.26554912    -0.89600
H202        H  0.38043943  0.03511059  0.20707654     0.18100
H203        H  0.27348539  0.46224502  0.14674728     0.18100
N204        N  0.32768815  0.46561388  0.07790719    -0.88600
H205        H  0.32546237  0.57537641  0.25871749     0.35400
H206        H  0.34281811  0.03708988  0.28979727     0.40500
H207        H  0.30575561  0.48002561  0.05656176     0.40200
H208        H  0.32044634  0.43684285  0.08179210     0.35100
C209        C  0.03068813  0.31422565  0.20968633    -0.26700
C210        C  0.49776811  0.28787481  0.20329187    -0.14800
C211        C  0.47000666  0.29569460  0.16324534     0.35900
C212        C  0.46946835  0.33103262  0.13495871    -0.26100
C213        C  0.49597293  0.35939454  0.14431322    -0.15400
C214        C  0.02971882  0.34993298  0.18333279     0.37000
N215        N  0.06031316  0.37503808  0.19170528    -0.89600
H216        H  0.05545385  0.30855841  0.23366402     0.18100
H217        H  0.44847218  0.33618106  0.10439514     0.18100
N218        N  0.44335375  0.26733137  0.14941645    -0.88600
H219        H  0.04889425  0.40177421  0.20546912     0.35400
H220        H  0.07351087  0.37962640  0.15616518     0.40500
H221        H  0.45830892  0.24496659  0.12940874     0.40200
H222        H  0.42367139  0.27886320  0.12211576     0.35100
C223        C  0.47034310  0.18343163  0.20795491    -0.27900
C224        C  0.49809029  0.21206003  0.20325631    -0.14800
C225        C  0.02775224  0.20260266  0.16528910     0.35900
C226        C  0.02926876  0.16600135  0.13907409    -0.26100
C227        C  0.50253005  0.13784047  0.14747503    -0.15400
C228        C  0.47347349  0.14669395  0.18352321     0.37000
N229        N  0.44521086  0.11958507  0.19427429    -0.89600
H230        H  0.44432022  0.18900882  0.22895851     0.18100
H231        H  0.04931660  0.16097408  0.10764908     0.18100
N232        N  0.05266181  0.23163143  0.14853357    -0.88600
H233        H  0.45888747  0.09451863  0.21009275     0.35400
H234        H  0.43255831  0.11200442  0.15922149     0.40500
H235        H  0.03620726  0.25243186  0.12756965     0.40200
H236        H  0.07205968  0.21983967  0.12129274     0.35100
C237        C  0.15107373  0.35684624  0.00439156    -0.26700
C238        C  0.11149416  0.35641881  0.00505716    -0.14800
C239        C  0.09448385  0.33198042  0.04088685     0.35900
C240        C  0.11450798  0.32118297  0.08578960    -0.26100
C241        C  0.15333426  0.32790318  0.09043217    -0.15400
C242        C  0.17237843  0.33872467  0.04452451     0.37000
N243        N  0.21265301  0.33099312  0.03870163    -0.89600
H244        H  0.16506885  0.37228348  0.97403911     0.18100
H245        H  0.09884422  0.30865160  0.11665529     0.18100
N246        N  0.05637265  0.32025671  0.03361283    -0.88600
H247        H  0.22156445  0.34026764  0.00236525     0.35400
H248        H  0.21781720  0.30077834  0.03960432     0.40500
H249        H  0.04081451  0.32784063  0.06676908     0.40200
H250        H  0.05768562  0.28990066  0.03114930     0.35100
C251        C  0.35727077  0.36092570  0.03088940    -0.26700
C252        C  0.38137971  0.38771435  0.05190295    -0.14800
C253        C  0.38342707  0.39244252  0.10647003     0.35900
C254        C  0.35879492  0.37329660  0.13857647    -0.26100
C255        C  0.33346405  0.34806103  0.11746526    -0.15400
C256        C  0.33395080  0.34034878  0.06336796     0.37000
N257        N  0.31142210  0.31142799  0.04070746    -0.89600
H258        H  0.35660380  0.35598121  0.98934022     0.18100
H259        H  0.35957774  0.37802498  0.18018734     0.18100
N260        N  0.41046275  0.41653072  0.12990663    -0.88600
H261        H  0.28304526  0.31847515  0.04975160     0.35400
H262        H  0.31935575  0.28466329  0.05782630     0.40500
H263        H  0.42740208  0.39896194  0.15480131     0.40200
H264        H  0.39548184  0.43571040  0.15473085     0.35100
C265        C  0.37555087  0.11192188  0.08324163    -0.26700
C266        C  0.38799640  0.12926051  0.03762919    -0.14800
C267        C  0.38736597  0.16991052  0.03365886     0.35900
C268        C  0.37031087  0.19254404  0.07313593    -0.26100
C269        C  0.35449752  0.17461135  0.11616347    -0.15400
C270        C  0.35948259  0.13442651  0.12299053     0.37000
N271        N  0.34408083  0.11643214  0.16760497    -0.89600
H272        H  0.37825217  0.08074378  0.08823075     0.18100
H273        H  0.36625621  0.22373667  0.06792695     0.18100
N274        N  0.40237045  0.18801536  0.98886167    -0.88600
H275        H  0.32441930  0.09675664  0.15496380     0.35400
H276        H  0.36641501  0.10096692  0.18670375     0.40500
H277        H  0.42344025  0.20617391  0.00132320     0.40200
H278        H  0.38039166  0.20542654  0.97168782     0.35100
C279        C  0.13250397  0.14349282  0.01774467    -0.26700
C280        C  0.11706436  0.11243132  0.04339510    -0.14800
C281        C  0.11996457  0.10975149  0.09790972     0.35900
C282        C  0.14140152  0.13578886  0.12536796    -0.26100
C283        C  0.15869680  0.16536011  0.09947921    -0.15400
C284        C  0.15315483  0.17038827  0.04521524     0.37000
N285        N  0.16893750  0.20146491  0.01670985    -0.89600
H286        H  0.12838219  0.14690639  0.97623647     0.18100
H287        H  0.14503718  0.13255974  0.16700414     0.18100
N288        N  0.10000939  0.08162434  0.12593720    -0.88600
H289        H  0.14615581  0.21840367  0.00065584     0.35400
H290        H  0.18340642  0.22001434  0.04090892     0.40500
H291        H  0.08066797  0.09667304  0.15043912     0.40200
H292        H  0.11978855  0.06689246  0.15025856     0.35100
C293        C  0.33300295  0.97157164  0.83159165    -0.26700
C294        C  0.36085430  0.99757626  0.81803239    -0.14800
C295        C  0.35218094  0.52637260  0.77648479     0.35900
C296        C  0.31623274  0.52548685  0.75169598    -0.26100
C297        C  0.28651354  0.99988327  0.76805007    -0.15400
C298        C  0.29690569  0.97189840  0.80685984     0.37000
N299        N  0.27109109  0.94326428  0.82131237    -0.89600
H300        H  0.33917018  0.95079782  0.86250747     0.18100
H301        H  0.31206786  0.54393002  0.71804738     0.18100
N302        N  0.37799762  0.55410605  0.75813979    -0.88600
H303        H  0.26663014  0.94512839  0.86132652     0.35400
H304        H  0.28423685  0.91583589  0.81355701     0.40500
H305        H  0.40332598  0.05052035  0.78069554     0.40200
H306        H  0.36512169  0.07918438  0.76504249     0.35100
C307        C  0.17425257  0.49940447  0.74447179    -0.26700
C308        C  0.20897915  0.00355260  0.76889965    -0.14800
C309        C  0.20591529  0.01300795  0.82224365     0.35900
C310        C  0.17031749  0.01260035  0.84724397    -0.26100
C311        C  0.13600206  0.00490936  0.82078856    -0.15400
C312        C  0.13879381  0.49931570  0.77004436     0.37000
N313        N  0.10574940  0.49104225  0.74018104    -0.89600
H314        H  0.17459193  0.49350490  0.70320461     0.18100
H315        H  0.16980478  0.01891076  0.88845953     0.18100
N316        N  0.23789005  0.02560264  0.85108988    -0.88600
H317        H  0.08578630  0.51466788  0.74331593     0.35400
H318        H  0.09413379  0.46634601  0.75559601     0.40500
H319        H  0.23127876  0.05406587  0.86375374     0.40200
H320        H  0.24155757  0.00814933  0.88407372     0.35100
C321        C  0.00453044  0.14161205  0.76956194    -0.26700
C322        C  0.49756796  0.14024964  0.82030297    -0.14800
C323        C  0.48862291  0.17781004  0.84232985     0.35900
C324        C  0.49247582  0.21201207  0.81290808    -0.26100
C325        C  0.50337221  0.21089565  0.76039187    -0.15400
C326        C  0.00617387  0.17608410  0.73979134     0.37000
N327        N  0.01365345  0.17236231  0.68541908    -0.89600
H328        H  0.01070093  0.11373372  0.75091637     0.18100
H329        H  0.48459530  0.23967144  0.83089780     0.18100
N330        N  0.47436251  0.18138644  0.89447329    -0.88600
H331        H  0.99227962  0.15643569  0.66872545     0.35400
H332        H  0.03967549  0.15641530  0.68070206     0.40500
H333        H  0.44780916  0.16919949  0.89502621     0.40200
H334        H  0.46955341  0.21057348  0.90515281     0.35100
C335        C  0.47567084  0.35774153  0.77365411    -0.26700
C336        C  0.50265038  0.36234255  0.81281163    -0.14800
C337        C  0.02617977  0.33150691  0.82957066     0.35900
C338        C  0.02435938  0.29658293  0.80117176    -0.26100
C339        C  0.49912424  0.28900472  0.75760842    -0.15400
C340        C  0.47368098  0.32239750  0.74574719     0.37000
N341        N  0.44630986  0.32207268  0.70432835    -0.89600
H342        H  0.45520746  0.38171084  0.76507776     0.18100
H343        H  0.04477951  0.27273510  0.81035782     0.18100
N344        N  0.05381136  0.33385895  0.87043398    -0.88600
H345        H  0.45147863  0.34454647  0.67857145     0.35400
H346        H  0.41921200  0.32808388  0.72004055     0.40500
H347        H  0.08088244  0.32785128  0.85466803     0.40200
H348        H  0.04896131  0.31225416  0.89764518     0.35100
C349        C  0.42564503  0.23453951  0.61565770    -0.26700
C350        C  0.39085304  0.23688641  0.64354645    -0.14800
C351        C  0.39355682  0.24059903  0.69800048     0.35900
C352        C  0.42946897  0.24403527  0.72187558    -0.26100
C353        C  0.46434417  0.24406848  0.69369953    -0.15400
C354        C  0.46169210  0.23667592  0.63961509     0.37000
N355        N  0.49491663  0.22879972  0.60849789    -0.89600
H356        H  0.42542368  0.23026367  0.57399821     0.18100
H357        H  0.43000035  0.24791356  0.76357485     0.18100
N358        N  0.36068726  0.24041585  0.73052057    -0.88600
H359        H  0.49352468  0.24779817  0.57689290     0.35400
H360        H  0.49374774  0.20073872  0.59320162     0.40500
H361        H  0.34705832  0.21470231  0.72364511     0.40200
H362        H  0.34216322  0.26419018  0.72085448     0.35100
C363        C  0.07311531  0.23073474  0.71216822    -0.26700
C364        C  0.04004626  0.25507873  0.69930776    -0.14800
C365        C  0.04688979  0.28625569  0.66496193     0.35900
C366        C  0.08267523  0.28932033  0.64067136    -0.26100
C367        C  0.11438017  0.26349442  0.65108419    -0.15400
C368        C  0.10927148  0.23431810  0.68835921     0.37000
N369        N  0.14046153  0.20744230  0.70156970    -0.89600
H370        H  0.07179062  0.20877218  0.74180217     0.18100
H371        H  0.08563304  0.31271220  0.61320356     0.18100
N372        N  0.01773306  0.31599452  0.65518089    -0.88600
H373        H  0.13227459  0.17934211  0.69354902     0.35400
H374        H  0.14536739  0.20949160  0.74152595     0.40500
H375        H  0.01280081  0.31737093  0.61542058     0.40200
H376        H  0.02796641  0.34258711  0.66680081     0.35100
C377        C  0.24482992  0.07451978  0.72972823    -0.26700
C378        C  0.24264482  0.03821766  0.70343235    -0.14800
C379        C  0.23350996  0.04002533  0.64984446     0.35900
C380        C  0.23088177  0.07612703  0.62423489    -0.26100
C381        C  0.23590221  0.11196561  0.64995665    -0.15400
C382        C  0.24230358  0.11080761  0.70390017     0.37000
N383        N  0.24652242  0.14617789  0.73248992    -0.89600
H384        H  0.24987096  0.07441472  0.77117581     0.18100
H385        H  0.22475527  0.07557124  0.58299677     0.18100
N386        N  0.22492022  0.00603027  0.62097198    -0.88600
H387        H  0.25210364  0.14020102  0.77166227     0.35400
H388        H  0.22032504  0.16224195  0.73102027     0.40500
H389        H  0.24359865  0.00330833  0.58953661     0.40200
H390        H  0.19719530  0.01013593  0.60615465     0.35100
C391        C  0.23890852  0.39143097  0.69069764    -0.26700
C392        C  0.26481356  0.38843297  0.64968105    -0.14800
C393        C  0.28572161  0.42147583  0.63910575     0.35900
C394        C  0.27941076  0.45631539  0.66806038    -0.26100
C395        C  0.25114170  0.46093520  0.70691855    -0.15400
C396        C  0.23217526  0.42618767  0.71956225     0.37000
N397        N  0.20697883  0.42448034  0.76288611    -0.89600
H398        H  0.22293417  0.36648393  0.70028485     0.18100
H399        H  0.29636984  0.48064084  0.65900277     0.18100
N400        N  0.31384522  0.41992533  0.59901568    -0.88600
H401        H  0.21736445  0.40225465  0.78767422     0.35400
H402        H  0.18038584  0.41684224  0.74902699     0.40500
H403        H  0.34003263  0.42605224  0.61570673     0.40200
H404        H  0.30640023  0.44185683  0.57218073     0.35100
C405        C  0.36363253  0.02158611  0.49151529    -0.26700
C406        C  0.39233164  0.02471085  0.52920229    -0.14800
C407        C  0.38671312  0.05226189  0.56960029     0.35900
C408        C  0.35863198  0.08255991  0.56314969    -0.26100
C409        C  0.33598926  0.08447717  0.51799152    -0.15400
C410        C  0.33580700  0.05204367  0.48478246     0.37000
N411        N  0.31027956  0.05188156  0.44122864    -0.89600
H412        H  0.36693362  0.99946905  0.46157676     0.18100
H413        H  0.35725697  0.10657479  0.59049591     0.18100
N414        N  0.41281069  0.05375673  0.61257789    -0.88600
H415        H  0.29451759  0.02718416  0.44408140     0.35400
H416        H  0.32650966  0.04932472  0.40736694     0.40500
H417        H  0.43206112  0.02940668  0.61207367     0.40200
H418        H  0.39692739  0.05155190  0.64651225     0.35100
C419        C  0.09359407  0.13259396  0.50709893    -0.26700
C420        C  0.09637443  0.16941617  0.48544490    -0.14800
C421        C  0.06758948  0.18493218  0.45126842     0.35900
C422        C  0.04087754  0.16020580  0.43162383    -0.26100
C423        C  0.04173000  0.12176680  0.44825116    -0.15400
C424        C  0.06593232  0.10869584  0.48908134     0.37000
N425        N  0.06476963  0.06977874  0.50834926    -0.89600
H426        H  0.11474828  0.12123808  0.53483177     0.18100
H427        H  0.02121465  0.16996801  0.40111036     0.18100
N428        N  0.06740948  0.22442804  0.43345900    -0.88600
H429        H  0.06012664  0.07133248  0.54836081     0.35400
H430        H  0.09141320  0.05536550  0.50217588     0.40500
H431        H  0.06172570  0.24242117  0.46556054     0.40200
H432        H  0.04480827  0.23026109  0.40751595     0.35100
C433        C  0.14853757  0.39202198  0.38517777    -0.26700
C434        C  0.16226903  0.40087321  0.43457082    -0.14800
C435        C  0.15459788  0.43767738  0.45614211     0.35900
C436        C  0.13002370  0.46431891  0.42961916    -0.26100
C437        C  0.11419798  0.45483155  0.38088253    -0.15400
C438        C  0.12538780  0.41892857  0.35756936     0.37000
N439        N  0.11135566  0.40878030  0.30728208    -0.89600
H440        H  0.15429730  0.36318604  0.36914879     0.18100
H441        H  0.12083149  0.49090231  0.44956552     0.18100
N442        N  0.16926916  0.44690137  0.50636927    -0.88600
H443        H  0.09749299  0.38285122  0.31059159     0.35400
H444        H  0.13461543  0.40340769  0.28278744     0.40500
H445        H  0.14618052  0.45397349  0.53073796     0.40200
H446        H  0.18496732  0.47159085  0.50270127     0.35100
C447        C  0.43926605  0.31371330  0.47292082    -0.26700
C448        C  0.40314342  0.32460055  0.45223408    -0.14800
C449        C  0.39962132  0.35324025  0.41347636     0.35900
C450        C  0.43056396  0.37466715  0.40159952    -0.26100
C451        C  0.46475288  0.36833386  0.42878443    -0.15400
C452        C  0.47039134  0.33575521  0.46113125     0.37000
N453        N  0.50631300  0.32832199  0.48667393    -0.89600
H454        H  0.44264184  0.29044790  0.50112282     0.18100
H455        H  0.42611815  0.39981703  0.37656077     0.18100
N456        N  0.36374818  0.36308078  0.38921650    -0.88600
H457        H  0.51555969  0.29941139  0.47949062     0.35400
H458        H  0.50185566  0.33172260  0.52641856     0.40500
H459        H  0.36720635  0.36077874  0.34902029     0.40200
H460        H  0.35719587  0.39223381  0.39846627     0.35100
C461        C  0.07918103  0.28369551  0.33862799    -0.26700
C462        C  0.11101205  0.25835754  0.32760176    -0.14800
C463        C  0.10448358  0.22554950  0.29644110     0.35900
C464        C  0.06839309  0.22136708  0.27275696    -0.26100
C465        C  0.03692125  0.24899030  0.27916506    -0.15400
C466        C  0.04267365  0.27858719  0.31749053     0.37000
N467        N  0.01267866  0.30526122  0.33498525    -0.89600
H468        H  0.08234585  0.30751013  0.36564579     0.18100
H469        H  0.06570081  0.19568286  0.24941016     0.18100
N470        N  0.13341783  0.19478060  0.29019220    -0.88600
H471        H  0.99175030  0.28994899  0.35313167     0.35400
H472        H  0.00127880  0.32102470  0.30365349     0.40500
H473        H  0.14101731  0.18388992  0.32690219     0.40200
H474        H  0.15743728  0.20613046  0.27368775     0.35100
C475        C  0.39445309  0.27316852  0.29981025    -0.26700
C476        C  0.38842238  0.23771393  0.32479621    -0.14800
C477        C  0.42076408  0.21152457  0.33066906     0.35900
C478        C  0.45659743  0.21978575  0.30979014    -0.26100
C479        C  0.46098645  0.25144199  0.27595486    -0.15400
C480        C  0.43025417  0.28090636  0.27716465     0.37000
N481        N  0.43654817  0.32024696  0.26302766    -0.89600
H482        H  0.37186131  0.29599678  0.30027473     0.18100
H483        H  0.48018213  0.19831832  0.31467234     0.18100
N484        N  0.41728105  0.17548580  0.35706039    -0.88600
H485        H  0.43316162  0.33745785  0.29636539     0.35400
H486        H  0.41575274  0.33063402  0.23682624     0.40500
H487        H  0.43670270  0.17481882  0.38782104     0.40200
H488        H  0.42537803  0.15288139  0.33148904     0.35100
C489        C  0.23191178  0.42620851  0.25087065    -0.26700
C490        C  0.25498555  0.45756252  0.26474417    -0.14800
C491        C  0.28369766  0.44819159  0.30246364     0.35900
C492        C  0.28491996  0.41247441  0.32901617    -0.26100
C493        C  0.26025040  0.38297161  0.31788320    -0.15400
C494        C  0.23331277  0.39015154  0.27786717     0.37000
N495        N  0.20657066  0.36148259  0.26563098    -0.89600
H496        H  0.21224168  0.42911700  0.21865816     0.18100
H497        H  0.30496083  0.40848572  0.36029274     0.18100
N498        N  0.31182917  0.47493073  0.31525472    -0.88600
H499        H  0.18650050  0.37259970  0.23865137     0.35400
H500        H  0.19114572  0.35619567  0.29900452     0.40500
H501        H  0.33859073  0.46154421  0.30680212     0.40200
H502        H  0.31111928  0.48032354  0.35517592     0.35100
C503        C  0.23277853  0.07179064  0.34829151    -0.26700
C504        C  0.23652252  0.10795690  0.32336728    -0.14800
C505        C  0.24032567  0.10712811  0.26869530     0.35900
C506        C  0.24228693  0.07129123  0.24187066    -0.26100
C507        C  0.24269641  0.03467978  0.26749412    -0.15400
C508        C  0.23525572  0.03586098  0.32165948     0.37000
N509        N  0.22828230  0.00145865  0.35032416    -0.89600
H510        H  0.22800989  0.07087286  0.38974303     0.18100
H511        H  0.24590641  0.07199750  0.20014637     0.18100
N512        N  0.24277102  0.14187911  0.23894939    -0.88600
H513        H  0.20095456  0.00497597  0.36615038     0.35400
H514        H  0.24730596  0.99934922  0.38163509     0.40500
H515        H  0.26706453  0.15576583  0.25059515     0.40200
H516        H  0.21847821  0.16013385  0.24591459     0.35100
O517        O  0.24403768  0.67834728  0.34181944    -0.80500
O518        O  0.24306477  0.68425620  0.63868472    -0.82000
O519        O  0.27714510  0.62419978  0.50052261    -0.79100
O520        O  0.16144654  0.66803400  0.49568634    -0.77500
O521        O  0.12955922  0.72759348  0.49738160    -0.79200
O522        O  0.33395829  0.65318568  0.49835154    -0.80200
O523        O  0.22367168  0.64535565  0.57280920    -0.81500
O524        O  0.22764886  0.64017749  0.40950783    -0.81800
Eu525      Eu  0.23004895  0.67695561  0.49042037     2.39200
O526        O  0.20466417  0.72671302  0.54334901    -0.89300
O527        O  0.27659646  0.69778528  0.43226402    -0.92900
C528        C  0.23568525  0.64504074  0.36130980     1.01800
C529        C  0.23269308  0.65087388  0.62046664     1.01600
C530        C  0.31348297  0.62344741  0.50365527     1.01600
C531        C  0.13079038  0.69051987  0.49792927     0.99400
H532        H  0.28963335  0.68234943  0.56594564     0.29200
O533        O  0.27710761  0.70212047  0.54429553    -1.01700
H534        H  0.18395396  0.70981472  0.41634149     0.29200
O535        O  0.20317116  0.72349735  0.43448156    -1.04200
O536        O  0.25832203  0.81967523  0.63368176    -0.81500
O537        O  0.25330135  0.81382829  0.33629355    -0.81000
O538        O  0.35734356  0.72551052  0.56724284    -0.79400
O539        O  0.14262065  0.77927140  0.57050528    -0.82800
O540        O  0.13992629  0.76955750  0.40740221    -0.80600
O541        O  0.35824972  0.72252207  0.40630353    -0.79300
O542        O  0.33721150  0.82991042  0.47466715    -0.80800
O543        O  0.21697068  0.87310724  0.46599341    -0.82700
O544        O  0.37019872  0.77066007  0.47754232    -0.79500
O545        O  0.16155345  0.84167337  0.46786614    -0.82100
O546        O  0.31899850  0.74377369  0.63524064    -0.77900
O547        O  0.31829031  0.74255945  0.33977830    -0.77900
O548        O  0.17974076  0.75153510  0.34013706    -0.77500
O549        O  0.18317197  0.75799021  0.63578477    -0.81000
O550        O  0.27302487  0.85988348  0.56664239    -0.80500
O551        O  0.27035135  0.85556876  0.40085028    -0.78800
Eu552      Eu  0.25069239  0.75176509  0.59923777     2.39800
Eu553      Eu  0.24881267  0.74672469  0.37573841     2.39600
Eu554      Eu  0.32191395  0.72430836  0.48693644     2.38400
Eu555      Eu  0.17678628  0.77379407  0.48788255     2.39900
Eu556      Eu  0.26804649  0.82347775  0.48542965     2.39800
O557        O  0.22239888  0.79613314  0.43171737    -0.93200
O558        O  0.29588213  0.77496789  0.54022562    -0.92100
C559        C  0.26650041  0.85334896  0.61495728     1.02000
C560        C  0.26206704  0.84803283  0.35312338     1.00700
C561        C  0.35253019  0.73470371  0.61511583     1.00100
C562        C  0.14915040  0.76819095  0.61770967     1.02100
C563        C  0.14571009  0.75943501  0.35977080     1.01000
C564        C  0.35254235  0.73373080  0.35906558     0.99800
C565        C  0.36800388  0.80756502  0.47062030     0.99900
C566        C  0.18092577  0.87125094  0.45808443     1.02500
H567        H  0.31132105  0.78463307  0.41248140     0.29900
O568        O  0.29280650  0.77265587  0.43354537    -1.05400
H569        H  0.20887900  0.82187651  0.56166511     0.31900
O570        O  0.22181107  0.80080994  0.54273057    -1.07900
N571        N  0.53510193  0.94342957  0.40935474    -0.37000
N572        N  0.04077236  0.53400840  0.38592120    -0.57500
N573        N  0.48232706  0.54565819  0.45906506    -0.37000
N574        N  0.47268959  0.46540187  0.47926690    -0.57500
C575        C  0.04499727  0.95461602  0.35690364     0.26600
C576        C  0.51067101  0.91526364  0.40218943     0.26600
C577        C  0.98838962  0.58083462  0.44888257     0.26600
C578        C  0.44767783  0.54842227  0.48173063     0.26600
C579        C  0.07207410  0.01611532  0.35440326     0.35200
C580        C  0.04934525  0.56867609  0.40520903     0.35200
C581        C  0.47614300  0.92399346  0.48387464     0.35200
C582        C  0.44471068  0.47972409  0.51025938     0.35200
C583        C  0.02766910  0.93372824  0.31854636    -0.22300
C584        C  0.50947710  0.90505456  0.35005542    -0.22300
C585        C  0.95789110  0.60640380  0.45899584    -0.22300
C586        C  0.43321838  0.58696141  0.47977823    -0.22300
C587        C  0.10069257  0.04201551  0.35627054    -0.23300
C588        C  0.08750665  0.57503412  0.39746437    -0.23300
C589        C  0.45109987  0.91331277  0.52232991    -0.23300
C590        C  0.42807722  0.44993539  0.53587873    -0.23300
C591        C  0.07726636  0.97554004  0.35087381    -0.18700
C592        C  0.48884840  0.90012741  0.44196488    -0.18700
C593        C  0.42948946  0.51807321  0.50702302    -0.18700
C594        C  0.02407836  0.59211386  0.43528628    -0.18700
H595        H  0.03272685  0.93496944  0.27729196     0.14200
H596        H  0.49230115  0.88377232  0.33197685     0.14200
H597        H  0.95654689  0.63758737  0.45505612     0.14200
H598        H  0.40705114  0.59972231  0.49532746     0.14200
H599        H  0.13098839  0.03606914  0.35273153     0.12500
H600        H  0.10291325  0.59966066  0.41024741     0.12500
H601        H  0.44380844  0.88429815  0.53268451     0.12500
H602        H  0.40349806  0.45226564  0.56108842     0.12500
H603        H  0.54372923  0.95504467  0.44475789     0.25800
H604        H  0.50225700  0.52208178  0.45876408     0.25800
O605        O  0.49959468  0.93154284  0.83139496    -0.80500
O606        O  0.50137291  0.92856147  0.13090280    -0.82000
O607        O  0.05112062  0.88127449  0.97596908    -0.79100
O608        O  0.43676652  0.89258952  0.00075085    -0.77500
O609        O  0.39542409  0.94517128  0.01255920    -0.79200
O610        O  0.09985962  0.92136727  0.98620462    -0.80200
O611        O  0.49739206  0.88654786  0.06211709    -0.81500
O612        O  0.49396666  0.88802107  0.89785446    -0.81800
Eu613      Eu  0.49532194  0.92237763  0.98026263     2.39200
O614        O  0.46198600  0.96479633  0.03596560    -0.89300
O615        O  0.03393517  0.95719468  0.92571264    -0.92900
C616        C  0.49773125  0.89631488  0.84958824     1.01800
C617        C  0.49954975  0.89367197  0.11108283     1.01600
C618        C  0.08588465  0.88739859  0.98513742     1.01600
C619        C  0.40568247  0.90891377  0.01797531     0.99400
H620        H  0.05093020  0.93688649  0.05705411     0.29200
O621        O  0.03513893  0.95519323  0.03682495    -1.01700
H622        H  0.44129757  0.94713401  0.90561871     0.29200
O623        O  0.45796164  0.96306994  0.92517336    -1.04200
O624        O  0.50258037  0.56586937  0.13352278    -0.81500
O625        O  0.49794777  0.56973655  0.83360655    -0.81000
O626        O  0.11174819  0.98521391  0.05859484    -0.79400
O627        O  0.38817923  0.00679507  0.06228138    -0.82800
O628        O  0.38793589  0.50454601  0.90173359    -0.80600
O629        O  0.10929290  0.49779034  0.90549214    -0.79300
O630        O  0.06188810  0.60440693  0.99879112    -0.80800
O631        O  0.44329949  0.61435644  0.99291150    -0.82700
O632        O  0.10291202  0.55230290  0.01590511    -0.79500
O633        O  0.39615768  0.57154714  0.99646717    -0.82100
O634        O  0.07084237  0.99574896  0.12678193    -0.77900
O635        O  0.06680066  0.50308932  0.83778650    -0.77900
O636        O  0.43041146  0.50229753  0.83415599    -0.77500
O637        O  0.43099775  0.00073394  0.12996718    -0.81000
O638        O  0.50511396  0.60906063  0.06626356    -0.80500
O639        O  0.50225284  0.61066751  0.90294469    -0.78800
Eu640      Eu  0.50086335  0.99757720  0.09485361     2.39800
Eu641      Eu  0.49858424  0.50059735  0.87048935     2.39600
Eu642      Eu  0.07357036  0.99014474  0.98178776     2.38400
Eu643      Eu  0.42345926  0.00480526  0.98240248     2.39900
Eu644      Eu  0.50160671  0.57466228  0.98357352     2.39800
O645        O  0.46117744  0.54221067  0.92745044    -0.93200
O646        O  0.03823898  0.53228507  0.04046729    -0.92100
C647        C  0.50447926  0.60105128  0.11499931     1.02000
C648        C  0.49974260  0.60450134  0.85391897     1.00700
C649        C  0.10535404  0.99127950  0.10683903     1.00100
C650        C  0.39594763  0.00336784  0.11085759     1.02100
C651        C  0.39576939  0.50316778  0.85295077     1.01000
C652        C  0.10160015  0.50198522  0.85695544     0.99800
C653        C  0.09294200  0.58895511  0.01757255     0.99900
C654        C  0.40952058  0.60508541  0.00358887     1.02500
H655        H  0.05561323  0.55218201  0.91291979     0.29900
O656        O  0.03923442  0.53566095  0.93170656    -1.05400
H657        H  0.44896882  0.55678186  0.06129146     0.31900
O658        O  0.46370808  0.53945892  0.03867795    -1.07900
N659        N  0.23816936  0.82385791  0.16778226    -0.37000
N660        N  0.19180207  0.75468162  0.15178052    -0.57500
N661        N  0.25009636  0.69600890  0.15232808    -0.37000
N662        N  0.29769204  0.76194811  0.16155738    -0.57500
C663        C  0.20592127  0.84040304  0.14696421     0.26600
C664        C  0.26694451  0.84408345  0.15009775     0.26600
C665        C  0.22151119  0.67764911  0.12988891     0.26600
C666        C  0.28217315  0.68246919  0.12925429     0.26600
C667        C  0.16949585  0.78545062  0.16654656     0.35200
C668        C  0.17262359  0.72310419  0.16170073     0.35200
C669        C  0.31723494  0.79375384  0.17047839     0.35200
C670        C  0.32334190  0.73139011  0.16483104     0.35200
C671        C  0.21352508  0.87522742  0.12326028    -0.22300
C672        C  0.25250929  0.87715056  0.12439469    -0.22300
C673        C  0.23561415  0.65000998  0.09477064    -0.22300
C674        C  0.27423254  0.65335231  0.09386927    -0.22300
C675        C  0.13648466  0.77319270  0.18860220    -0.23300
C676        C  0.13822487  0.73329443  0.18427677    -0.23300
C677        C  0.35473064  0.78299655  0.18186569    -0.23300
C678        C  0.35864854  0.74335251  0.17927628    -0.23300
C679        C  0.17241945  0.82043415  0.14047671    -0.18700
C680        C  0.30533316  0.83029408  0.15071438    -0.18700
C681        C  0.31811096  0.69634714  0.13934277    -0.18700
C682        C  0.18311826  0.68765283  0.13874420    -0.18700
H683        H  0.19363898  0.89479081  0.10238513     0.14200
H684        H  0.26840869  0.89835427  0.10436504     0.14200
H685        H  0.21972341  0.63085437  0.07060916     0.14200
H686        H  0.29385069  0.63705085  0.06864547     0.14200
H687        H  0.11242920  0.79135049  0.20187975     0.12500
H688        H  0.11655206  0.71380967  0.19421114     0.12500
H689        H  0.37756380  0.80209114  0.18490449     0.12500
H690        H  0.38518018  0.72573480  0.18125516     0.12500
H691        H  0.24056950  0.79809418  0.18896200     0.25800
H692        H  0.24800653  0.71596992  0.18287695     0.25800
C693        C  0.99855611  0.74922437  0.24162104    -0.02800
C694        C  0.25015501  0.99716052  0.23306032    -0.02800
C695        C  0.50158304  0.74965760  0.72578992    -0.02800
C696        C  0.24721349  0.00002524  0.73703547    -0.02800
C697        C  0.14215979  0.98777986  0.19209245    -0.26700
C698        C  0.14155925  0.99453653  0.13884642    -0.14800
C699        C  0.17726615  0.50830392  0.11988664     0.35900
C700        C  0.21111720  0.51013537  0.14969378    -0.26100
C701        C  0.21191905  0.99764250  0.19885283    -0.15400
C702        C  0.17606008  0.98977935  0.22174575     0.37000
N703        N  0.17387468  0.98223623  0.27582680    -0.89600
H704        H  0.11615692  0.98042686  0.21119984     0.18100
H705        H  0.23600520  0.51995426  0.13049062     0.18100
N706        N  0.17835600  0.51917452  0.06628013    -0.88600
H707        H  0.16465993  0.95425305  0.28040563     0.35400
H708        H  0.15285133  0.00160509  0.29049657     0.40500
H709        H  0.19903220  0.50100175  0.04783660     0.40200
H710        H  0.18684660  0.54772548  0.06417013     0.35100
C711        C  0.35659518  0.01990755  0.19204377    -0.26700
C712        C  0.36054591  0.00074888  0.14434211    -0.14800
C713        C  0.32837695  0.98129183  0.12605431     0.35900
C714        C  0.29537167  0.97899454  0.15664119    -0.26100
C715        C  0.28918789  0.00100363  0.20215604    -0.15400
C716        C  0.32226959  0.52369644  0.22214044     0.37000
N717        N  0.32146780  0.54652749  0.26879348    -0.89600
H718        H  0.38050548  0.53824227  0.20726621     0.18100
H719        H  0.27331512  0.96088740  0.14289295     0.18100
N720        N  0.32833103  0.96420690  0.07535947    -0.88600
H721        H  0.32376326  0.07440250  0.25468545     0.35400
H722        H  0.34461309  0.53716251  0.29223247     0.40500
H723        H  0.30669323  0.97879235  0.05366150     0.40200
H724        H  0.32101862  0.93542944  0.07882844     0.35100
C725        C  0.02860384  0.81365685  0.20891961    -0.26700
C726        C  0.49966966  0.78649135  0.20464075    -0.14800
C727        C  0.47208005  0.79493736  0.16459979     0.35900
C728        C  0.47235845  0.83021229  0.13607923    -0.26100
C729        C  0.49932905  0.85822906  0.14532401    -0.15400
C730        C  0.02779293  0.84916296  0.18185355     0.37000
N731        N  0.05924918  0.87343310  0.18828159    -0.89600
H732        H  0.05344912  0.80780104  0.23261322     0.18100
H733        H  0.45127970  0.83578102  0.10573236     0.18100
N734        N  0.44396893  0.76770738  0.15215064    -0.88600
H735        H  0.04881786  0.90065353  0.20152876     0.35400
H736        H  0.07178195  0.87713755  0.15207568     0.40500
H737        H  0.45774569  0.74415593  0.13306515     0.40200
H738        H  0.42458174  0.77962496  0.12474703     0.35100
C739        C  0.47347149  0.68053429  0.21265601    -0.27900
C740        C  0.49935636  0.71054364  0.20506445    -0.14800
C741        C  0.02777293  0.70246566  0.16684240     0.35900
C742        C  0.03052155  0.66546314  0.14208553    -0.26100
C743        C  0.50506937  0.63612824  0.15022361    -0.15400
C744        C  0.47735651  0.64373258  0.18853421     0.37000
N745        N  0.45140188  0.61503475  0.20248789    -0.89600
H746        H  0.44860130  0.68470636  0.23636701     0.18100
H747        H  0.05181325  0.65984502  0.11233828     0.18100
N748        N  0.05272844  0.73163016  0.15068688    -0.88600
H749        H  0.46720909  0.59091814  0.21755460     0.35400
H750        H  0.43733953  0.60635625  0.16894840     0.40500
H751        H  0.03647168  0.75211870  0.12889740     0.40200
H752        H  0.07291453  0.71981539  0.12450322     0.35100
C753        C  0.14828857  0.85239949  0.00339801    -0.26700
C754        C  0.10865912  0.85395400  0.00602856    -0.14800
C755        C  0.09148814  0.83047211  0.04297586     0.35900
C756        C  0.11213843  0.81917361  0.08720024    -0.26100
C757        C  0.15117909  0.82498787  0.09011344    -0.15400
C758        C  0.16970019  0.83363354  0.04298763     0.37000
N759        N  0.20957689  0.82379320  0.03600473    -0.89600
H760        H  0.16227082  0.86662473  0.97195650     0.18100
H761        H  0.09681157  0.80741164  0.11898120     0.18100
N762        N  0.05293086  0.81980797  0.03714881    -0.88600
H763        H  0.21801433  0.83146473  0.99874380     0.35400
H764        H  0.21355258  0.79351287  0.03847063     0.40500
H765        H  0.03847231  0.82725286  0.07116179     0.40200
H766        H  0.05348772  0.78949720  0.03425949     0.35100
C767        C  0.35748902  0.86015116  0.03022986    -0.26700
C768        C  0.38239358  0.88595966  0.05165554    -0.14800
C769        C  0.38433496  0.89067637  0.10617004     0.35900
C770        C  0.35852966  0.87284843  0.13787059    -0.26100
C771        C  0.33222532  0.84882816  0.11628293    -0.15400
C772        C  0.33299198  0.84076991  0.06229215     0.37000
N773        N  0.30942004  0.81286446  0.03930116    -0.89600
H774        H  0.35689883  0.85529434  0.98865961     0.18100
H775        H  0.35917835  0.87757903  0.17948782     0.18100
N776        N  0.41232770  0.91356482  0.12980961    -0.88600
H777        H  0.28111356  0.82151799  0.04685499     0.35400
H778        H  0.31561625  0.78602022  0.05717523     0.40500
H779        H  0.42828580  0.89550388  0.15525396     0.40200
H780        H  0.39800555  0.93381105  0.15386671     0.35100
C781        C  0.37896399  0.61546823  0.08649228    -0.26700
C782        C  0.38806245  0.63104667  0.03813893    -0.14800
C783        C  0.38140034  0.67083281  0.02831202     0.35900
C784        C  0.36198654  0.69389836  0.06544345    -0.26100
C785        C  0.35011552  0.67719023  0.11188146    -0.15400
C786        C  0.36019987  0.63842549  0.12362223     0.37000
N787        N  0.34779239  0.62174376  0.17104520    -0.89600
H788        H  0.38602585  0.58519274  0.09531270     0.18100
H789        H  0.35370225  0.72394918  0.05652029     0.18100
N790        N  0.39266060  0.68721558  0.98016987    -0.88600
H791        H  0.33023307  0.59926471  0.16164904     0.35400
H792        H  0.37166782  0.60984513  0.19095055     0.40500
H793        H  0.41070923  0.70950149  0.98854212     0.40200
H794        H  0.36825463  0.69962587  0.96183027     0.35100
C795        C  0.12743553  0.64912349  0.02650695    -0.26700
C796        C  0.11592473  0.61469195  0.04842461    -0.14800
C797        C  0.12105119  0.60817788  0.10221776     0.35900
C798        C  0.14111453  0.63407662  0.13192796    -0.26100
C799        C  0.15476772  0.66703273  0.10933715    -0.15400
C800        C  0.14703512  0.67550408  0.05626486     0.37000
N801        N  0.16009287  0.70932672  0.03075923    -0.89600
H802        H  0.12170748  0.65521515  0.98584922     0.18100
H803        H  0.14700866  0.62809875  0.17259732     0.18100
N804        N  0.10502152  0.57584414  0.12691439    -0.88600
H805        H  0.13598881  0.72650851  0.01922750     0.35400
H806        H  0.17550066  0.72646650  0.05566974     0.40500
H807        H  0.07557754  0.57920604  0.12269330     0.40200
H808        H  0.11053282  0.57593716  0.16685934     0.35100
C809        C  0.33371401  0.47478648  0.83256471    -0.26700
C810        C  0.36124484  0.50089247  0.81834242    -0.14800
C811        C  0.35216052  0.02358824  0.77666802     0.35900
C812        C  0.31631805  0.02339519  0.75172549    -0.26100
C813        C  0.28685972  0.50153623  0.76847782    -0.15400
C814        C  0.29770457  0.47423018  0.80789145     0.37000
N815        N  0.27240789  0.44540750  0.82324742    -0.89600
H816        H  0.34013257  0.45445180  0.86391898     0.18100
H817        H  0.31261799  0.04211518  0.71829469     0.18100
N818        N  0.37815675  0.05144214  0.75913746    -0.88600
H819        H  0.26797414  0.44779487  0.86322622     0.35400
H820        H  0.28600155  0.41807401  0.81620178     0.40500
H821        H  0.40338175  0.55313655  0.77927825     0.40200
H822        H  0.36505231  0.58189249  0.76400261     0.35100
C823        C  0.17380569  0.00089683  0.74136194    -0.26700
C824        C  0.20947453  0.50388863  0.77109620    -0.14800
C825        C  0.20661992  0.51483399  0.82408852     0.35900
C826        C  0.17105945  0.51540089  0.84941373    -0.26100
C827        C  0.13682172  0.50607181  0.82401763    -0.15400
C828        C  0.13804825  0.00109516  0.76629120     0.37000
N829        N  0.10470760  0.99678898  0.73509042    -0.89600
H830        H  0.17431943  0.99655873  0.69976296     0.18100
H831        H  0.17056818  0.52329491  0.89015744     0.18100
N832        N  0.23884083  0.52749471  0.85237104    -0.88600
H833        H  0.08603846  0.02120365  0.74078446     0.35400
H834        H  0.09152778  0.97200787  0.74730011     0.40500
H835        H  0.23263264  0.55621072  0.86427676     0.40200
H836        H  0.24233817  0.51054645  0.88585416     0.35100
C837        C  0.00756114  0.63981082  0.77288228    -0.26700
C838        C  0.49916770  0.64096528  0.82078856    -0.14800
C839        C  0.49006649  0.67846953  0.84253125     0.35900
C840        C  0.49255865  0.71254880  0.81279573    -0.26100
C841        C  0.50340255  0.71153937  0.76025043    -0.15400
C842        C  0.00970017  0.67364635  0.74225475     0.37000
N843        N  0.01822983  0.66886947  0.68833151    -0.89600
H844        H  0.01321159  0.61158284  0.75493652     0.18100
H845        H  0.48389425  0.73987755  0.83114415     0.18100
N846        N  0.47682622  0.68249158  0.89489076    -0.88600
H847        H  0.99744412  0.65220101  0.67158991     0.35400
H848        H  0.04454166  0.65320534  0.68509020     0.40500
H849        H  0.44972440  0.69680448  0.89414464     0.40200
H850        H  0.49519304  0.70002230  0.91514199     0.35100
C851        C  0.47411911  0.85760077  0.77439266    -0.26700
C852        C  0.50053766  0.86163511  0.81439855    -0.14800
C853        C  0.02756262  0.83113331  0.82538390     0.35900
C854        C  0.02616066  0.79575334  0.79796585    -0.26100
C855        C  0.49796674  0.78923495  0.75774572    -0.15400
C856        C  0.47250859  0.82258793  0.74581698     0.37000
N857        N  0.44555310  0.82253279  0.70383046    -0.89600
H858        H  0.45387473  0.88172726  0.76565060     0.18100
H859        H  0.04765778  0.77278096  0.80663714     0.18100
N860        N  0.05611211  0.83497670  0.86473747    -0.88600
H861        H  0.45079897  0.84534469  0.67865650     0.35400
H862        H  0.41827440  0.82823527  0.71912377     0.40500
H863        H  0.08287343  0.82978672  0.84770344     0.40200
H864        H  0.05280386  0.81346230  0.89264703     0.35100
C865        C  0.42449541  0.73264645  0.61723523    -0.26700
C866        C  0.38976081  0.73626582  0.64535465    -0.14800
C867        C  0.39274804  0.74181828  0.69949033     0.35900
C868        C  0.42891078  0.74480585  0.72283542    -0.26100
C869        C  0.46363719  0.74428112  0.69417962    -0.15400
C870        C  0.46067690  0.73612564  0.64042543     0.37000
N871        N  0.49381882  0.72954710  0.60879746    -0.89600
H872        H  0.42407637  0.72716753  0.57583124     0.18100
H873        H  0.42971126  0.74953811  0.76437376     0.18100
N874        N  0.35987806  0.74464509  0.73214452    -0.88600
H875        H  0.49141704  0.74864125  0.57732379     0.35400
H876        H  0.49358620  0.70142382  0.59345230     0.40500
H877        H  0.34499270  0.71947224  0.72736319     0.40200
H878        H  0.34242623  0.76877927  0.72069490     0.35100
C879        C  0.07448077  0.73127657  0.71259691    -0.26700
C880        C  0.04020056  0.75294703  0.69796914    -0.14800
C881        C  0.04479579  0.78313352  0.66124421     0.35900
C882        C  0.08047033  0.78832228  0.63782525    -0.26100
C883        C  0.11371286  0.76531262  0.65065576    -0.15400
C884        C  0.11031203  0.73679710  0.68928174     0.37000
N885        N  0.14299220  0.71253490  0.70443727    -0.89600
H886        H  0.07434040  0.71011041  0.74342609     0.18100
H887        H  0.08199246  0.81089627  0.60881880     0.18100
N888        N  0.01330411  0.80947785  0.64783207    -0.88600
H889        H  0.13699073  0.68358752  0.69755842     0.35400
H890        H  0.14716490  0.71599379  0.74436174     0.40500
H891        H  0.00936944  0.80864272  0.60771237     0.40200
H892        H  0.02059092  0.83759344  0.65754502     0.35100
C893        C  0.24403827  0.57594692  0.73182184    -0.26700
C894        C  0.24160500  0.53968238  0.70526249    -0.14800
C895        C  0.23117338  0.54198537  0.65213309     0.35900
C896        C  0.22746642  0.57837318  0.62711532    -0.26100
C897        C  0.23313275  0.61410732  0.65281910    -0.15400
C898        C  0.24089596  0.61250868  0.70643808     0.37000
N899        N  0.24619160  0.64766993  0.73504501    -0.89600
H900        H  0.25003863  0.57563539  0.77301623     0.18100
H901        H  0.22029942  0.57808465  0.58617807     0.18100
N902        N  0.22256136  0.50811229  0.62307248    -0.88600
H903        H  0.25280662  0.64142441  0.77386937     0.35400
H904        H  0.22012816  0.66400606  0.73497843     0.40500
H905        H  0.24058807  0.50607207  0.59089142     0.40200
H906        H  0.19450799  0.51188189  0.60937170     0.35100
C907        C  0.23706937  0.89189097  0.68794045    -0.26700
C908        C  0.26509374  0.88824252  0.64980848    -0.14800
C909        C  0.28816078  0.91987535  0.64191791     0.35900
C910        C  0.28112491  0.95493853  0.66970154    -0.26100
C911        C  0.25109001  0.96025022  0.70602139    -0.15400
C912        C  0.23043678  0.92635659  0.71687918     0.37000
N913        N  0.20391022  0.92505514  0.75873185    -0.89600
H914        H  0.21960724  0.86762092  0.69537884     0.18100
H915        H  0.29926225  0.97863722  0.66229616     0.18100
N916        N  0.31938234  0.91635214  0.60636433    -0.88600
H917        H  0.21310514  0.90253936  0.78381328     0.35400
H918        H  0.17750732  0.91818192  0.74335996     0.40500
H919        H  0.34442301  0.92111330  0.62699303     0.40200
H920        H  0.31544198  0.93833047  0.57859212     0.35100
C921        C  0.36304076  0.52657180  0.48093101    -0.26700
C922        C  0.38952122  0.52677825  0.52189267    -0.14800
C923        C  0.38196807  0.55058126  0.56544032     0.35900
C924        C  0.35370406  0.58094400  0.56117489    -0.26100
C925        C  0.33295374  0.58592367  0.51474172    -0.15400
C926        C  0.33479985  0.55667831  0.47675608     0.37000
N927        N  0.31067988  0.55963270  0.43177617    -0.89600
H928        H  0.36824537  0.50727142  0.44807023     0.18100
H929        H  0.35054929  0.60272311  0.59153715     0.18100
N930        N  0.40679512  0.54744605  0.60989506    -0.88600
H931        H  0.29567175  0.53439837  0.42990773     0.35400
H932        H  0.32790377  0.56034431  0.39888237     0.40500
H933        H  0.40358006  0.52015215  0.62643385     0.40200
H934        H  0.39811684  0.56807214  0.63792998     0.35100
C935        C  0.09137130  0.63747086  0.52322363    -0.26700
C936        C  0.09439588  0.67255598  0.49688082    -0.14800
C937        C  0.06562865  0.68596555  0.46142499     0.35900
C938        C  0.03836268  0.66048064  0.44577956    -0.26100
C939        C  0.03957695  0.62303994  0.46607286    -0.15400
C940        C  0.06357861  0.61256915  0.50825336     0.37000
N941        N  0.06261391  0.57480955  0.53131422    -0.89600
H942        H  0.11270103  0.62782249  0.55173213     0.18100
H943        H  0.01894669  0.66822359  0.41408727     0.18100
N944        N  0.06682112  0.72334061  0.43707191    -0.88600
H945        H  0.05819235  0.57854273  0.57115163     0.35400
H946        H  0.08926700  0.56015142  0.52617378     0.40500
H947        H  0.06195891  0.74436022  0.46595014     0.40200
H948        H  0.04445298  0.72759955  0.41034288     0.35100
C949        C  0.14582235  0.89106255  0.38004404    -0.26700
C950        C  0.16086193  0.90208378  0.42789120    -0.14800
C951        C  0.15457136  0.94039489  0.44554549     0.35900
C952        C  0.12995920  0.96624868  0.41719575    -0.26100
C953        C  0.11278675  0.95446187  0.37034699    -0.15400
C954        C  0.12267747  0.91695184  0.35068871     0.37000
N955        N  0.10729725  0.90424061  0.30228248    -0.89600
H956        H  0.15080910  0.86142052  0.36634592     0.18100
H957        H  0.12202726  0.99430556  0.43423023     0.18100
N958        N  0.17101056  0.95227406  0.49358077    -0.88600
H959        H  0.09223411  0.87949561  0.30925658     0.35400
H960        H  0.12992401  0.89601264  0.27774981     0.40500
H961        H  0.14885903  0.96170898  0.51834656     0.40200
H962        H  0.18733579  0.97600741  0.48600863     0.35100
C963        C  0.43869131  0.81198404  0.47184271    -0.26700
C964        C  0.40259273  0.82518029  0.45296919    -0.14800
C965        C  0.39979730  0.85527504  0.41607916     0.35900
C966        C  0.43163100  0.87558110  0.40471629    -0.26100
C967        C  0.46596219  0.86683879  0.43072388    -0.15400
C968        C  0.47064820  0.83299691  0.46070633     0.37000
N969        N  0.50679906  0.82271777  0.48411307    -0.89600
H970        H  0.44160191  0.78747018  0.49815751     0.18100
H971        H  0.42812812  0.90150998  0.38094299     0.18100
N972        N  0.36410914  0.86714026  0.39255793    -0.88600
H973        H  0.51433908  0.79383762  0.47435126     0.35400
H974        H  0.50330845  0.82440351  0.52414055     0.40500
H975        H  0.36725128  0.86533005  0.35226554     0.40200
H976        H  0.35845162  0.89632181  0.40263430     0.35100
C977        C  0.07829059  0.78222302  0.33779624    -0.26700
C978        C  0.10935705  0.75541230  0.32860411    -0.14800
C979        C  0.10140295  0.72152870  0.30028175     0.35900
C980        C  0.06532413  0.71834547  0.27581103    -0.26100
C981        C  0.03517112  0.74787319  0.27934146    -0.15400
C982        C  0.04163122  0.77786518  0.31663983     0.37000
N983        N  0.01209956  0.80538741  0.33341074    -0.89600
H984        H  0.08215509  0.80668098  0.36348976     0.18100
H985        H  0.06146009  0.69191809  0.25438873     0.18100
N986        N  0.12872231  0.68896651  0.29764113    -0.88600
H987        H  0.99073005  0.79062316  0.35144871     0.35400
H988        H  0.00097418  0.82112207  0.30188744     0.40500
H989        H  0.13511778  0.67969480  0.33549077     0.40200
H990        H  0.15370127  0.69799178  0.28090180     0.35100
C991        C  0.39455191  0.77217801  0.29873667    -0.26700
C992        C  0.38921742  0.73851032  0.32827859    -0.14800
C993        C  0.42270846  0.71446609  0.33861376     0.35900
C994        C  0.45779820  0.72086825  0.31406918    -0.26100
C995        C  0.46162289  0.75054243  0.27697463    -0.15400
C996        C  0.43057396  0.77963811  0.27627674     0.37000
N997        N  0.43695820  0.81878337  0.26138070    -0.89600
H998        H  0.37153523  0.79451938  0.29666028     0.18100
H999        H  0.48184734  0.70037920  0.32138698     0.18100
N1000       N  0.42174833  0.68351355  0.37531994    -0.88600
H1001       H  0.43321877  0.83645277  0.29424809     0.35400
H1002       H  0.41652206  0.82871309  0.23441942     0.40500
H1003       H  0.44106376  0.68949450  0.40485275     0.40200
H1004       H  0.43122282  0.65760836  0.35702552     0.35100
C1005       C  0.23462791  0.92364992  0.24716783    -0.26700
C1006       C  0.25564051  0.95624933  0.26201020    -0.14800
C1007       C  0.28354953  0.94841549  0.30139619     0.35900
C1008       C  0.28555605  0.91284732  0.32841159    -0.26100
C1009       C  0.26185424  0.88252858  0.31700467    -0.15400
C1010       C  0.23568031  0.88842668  0.27585551     0.37000
N1011       N  0.20870886  0.85970776  0.26492417    -0.89600
H1012       H  0.21610793  0.92535707  0.21362951     0.18100
H1013       H  0.30520395  0.90973875  0.36041799     0.18100
N1014       N  0.31008719  0.97647010  0.31537043    -0.88600
H1015       H  0.18870476  0.87045136  0.23763286     0.35400
H1016       H  0.19305874  0.85570047  0.29854071     0.40500
H1017       H  0.33752426  0.96414638  0.30842725     0.40200
H1018       H  0.30810397  0.98201868  0.35517665     0.35100
C1019       C  0.23346130  0.57232108  0.35315935    -0.26700
C1020       C  0.23672502  0.60857568  0.32835480    -0.14800
C1021       C  0.24172485  0.60807300  0.27394740     0.35900
C1022       C  0.24400052  0.57254440  0.24688797    -0.26100
C1023       C  0.24433243  0.53586565  0.27212431    -0.15400
C1024       C  0.23710264  0.53652191  0.32638576     0.37000
N1025       N  0.23132896  0.50169039  0.35482991    -0.89600
H1026       H  0.22834983  0.57127850  0.39453051     0.18100
H1027       H  0.24790448  0.57353900  0.20522270     0.18100
N1028       N  0.24525011  0.64287152  0.24467073    -0.88600
H1029       H  0.20422730  0.50432183  0.37147938     0.35400
H1030       H  0.25087815  0.49963654  0.38549440     0.40500
H1031       H  0.26959533  0.65630460  0.25718266     0.40200
H1032       H  0.22104739  0.66144136  0.25075501     0.35100
O1033       O  0.74511389  0.17694373  0.33846308    -0.80500
O1034       O  0.74448291  0.18154111  0.63551617    -0.82000
O1035       O  0.77925564  0.12258667  0.49676028    -0.79100
O1036       O  0.66198880  0.16677809  0.49122064    -0.77500
O1037       O  0.62973508  0.22617621  0.48895372    -0.79200
O1038       O  0.83598811  0.15183132  0.49617519    -0.80200
O1039       O  0.72705560  0.14182320  0.56933847    -0.81500
O1040       O  0.72919470  0.13858739  0.40616459    -0.81800
Eu1041     Eu  0.73115458  0.17491869  0.48730255     2.39200
O1042       O  0.70537176  0.22456708  0.54014718    -0.89300
O1043       O  0.77776619  0.19636294  0.42969309    -0.92900
C1044       C  0.73699507  0.14352990  0.35793653     1.01800
C1045       C  0.73519220  0.14774280  0.61726705     1.01600
C1046       C  0.81561779  0.12193431  0.50050401     1.01600
C1047       C  0.63110906  0.18914176  0.49063861     0.99400
H1048       H  0.79071091  0.18066122  0.56293654     0.29200
O1049       O  0.77800670  0.20037428  0.54143145    -1.01700
H1050       H  0.68468218  0.20854766  0.41214642     0.29200
O1051       O  0.70403335  0.22154634  0.43101841    -1.04200
O1052       O  0.75856586  0.31757724  0.63283351    -0.81500
O1053       O  0.75347729  0.31213515  0.33453195    -0.81000
O1054       O  0.85867222  0.22617983  0.56529349    -0.79400
O1055       O  0.64313943  0.27385043  0.56638338    -0.82800
O1056       O  0.64099474  0.27118855  0.40360927    -0.80600
O1057       O  0.85915568  0.22134563  0.40344512    -0.79300
O1058       O  0.83750789  0.32902630  0.47383064    -0.80800
O1059       O  0.71742576  0.37158436  0.46681843    -0.82700
O1060       O  0.87066429  0.26979641  0.47656289    -0.79500
O1061       O  0.66203364  0.34012996  0.46894662    -0.82100
O1062       O  0.81936768  0.24405560  0.63252128    -0.77900
O1063       O  0.81905876  0.24185792  0.33720303    -0.77900
O1064       O  0.68085219  0.25220743  0.33695188    -0.77500
O1065       O  0.68367675  0.25451755  0.63258633    -0.81000
O1066       O  0.77337647  0.35787545  0.56614204    -0.80500
O1067       O  0.76965991  0.35353959  0.39995641    -0.78800
Eu1068     Eu  0.75113889  0.24960301  0.59673570     2.39800
Eu1069     Eu  0.74980953  0.24524205  0.37324973     2.39600
Eu1070     Eu  0.82309071  0.22282105  0.48467186     2.38400
Eu1071     Eu  0.67770500  0.27178303  0.48450359     2.39900
Eu1072     Eu  0.76851504  0.32170321  0.48437157     2.39800
O1073       O  0.72349960  0.29454653  0.42941430    -0.93200
O1074       O  0.79638382  0.27290379  0.53823569    -0.92100
C1075       C  0.76702420  0.35138686  0.61454990     1.02000
C1076       C  0.76161053  0.34622033  0.35214853     1.00700
C1077       C  0.85323271  0.23604475  0.61293245     1.00100
C1078       C  0.64965913  0.26352853  0.61380787     1.02100
C1079       C  0.64680816  0.26119660  0.35596845     1.01000
C1080       C  0.85329909  0.23293554  0.35633918     0.99800
C1081       C  0.86836786  0.30673198  0.47030904     0.99900
C1082       C  0.68127508  0.36988520  0.45989320     1.02500
H1083       H  0.81214042  0.28348556  0.41082241     0.29900
O1084       O  0.79365510  0.27130093  0.43161875    -1.05400
H1085       H  0.70893830  0.31966103  0.55996371     0.31900
O1086       O  0.72198618  0.29871869  0.54073994    -1.07900
N1087       N  0.03286244  0.44630772  0.41519505    -0.37000
N1088       N  0.54137396  0.03094405  0.37756868    -0.57500
N1089       N  0.98171512  0.04514765  0.45168588    -0.37000
N1090       N  0.97499153  0.96420681  0.47563271    -0.57500
C1091       C  0.54454807  0.45700288  0.36129440     0.26600
C1092       C  0.00918838  0.41749827  0.40793626     0.26600
C1093       C  0.48957110  0.07847005  0.44190947     0.26600
C1094       C  0.94959311  0.04778382  0.48049688     0.26600
C1095       C  0.57395615  0.51744042  0.36298667     0.35200
C1096       C  0.54932561  0.06644841  0.39458154     0.35200
C1097       C  0.97429585  0.42585603  0.48907406     0.35200
C1098       C  0.94797930  0.97855395  0.50818876     0.35200
C1099       C  0.52840958  0.43553667  0.32250853    -0.22300
C1100       C  0.00837013  0.40726484  0.35580555    -0.22300
C1101       C  0.45987956  0.10442180  0.45426566    -0.22300
C1102       C  0.93631329  0.08661133  0.48374076    -0.22300
C1103       C  0.60374697  0.54174856  0.36909348    -0.23300
C1104       C  0.58693632  0.07378809  0.38457903    -0.23300
C1105       C  0.94881936  0.41534377  0.52706571    -0.23300
C1106       C  0.93312679  0.94880284  0.53608669    -0.23300
C1107       C  0.57763483  0.47699204  0.35673649    -0.18700
C1108       C  0.98769560  0.40189279  0.44769929    -0.18700
C1109       C  0.93211803  0.01680268  0.50550889    -0.18700
C1110       C  0.52469844  0.08972715  0.42571165    -0.18700
H1111       H  0.53484843  0.43609315  0.28158843     0.14200
H1112       H  0.99211830  0.38527729  0.33759954     0.14200
H1113       H  0.45857410  0.13556410  0.44958593     0.14200
H1114       H  0.91263597  0.09926995  0.50546974     0.14200
H1115       H  0.63389747  0.53455554  0.36507184     0.12500
H1116       H  0.60186538  0.09919341  0.39554193     0.12500
H1117       H  0.94125696  0.38643083  0.53743165     0.12500
H1118       H  0.90981084  0.95110652  0.56340956     0.12500
H1119       H  0.04149625  0.45775092  0.45070602     0.25800
H1120       H  0.00024729  0.02091716  0.44585293     0.25800
O1121       O  0.00058622  0.43401347  0.83521924    -0.80500
O1122       O  0.00245721  0.42954948  0.13449542    -0.82000
O1123       O  0.55314676  0.38268007  0.97422763    -0.79100
O1124       O  0.93731131  0.39431471  0.00471597    -0.77500
O1125       O  0.89646142  0.44690856  0.01879460    -0.79200
O1126       O  0.60209997  0.42223350  0.98618654    -0.80200
O1127       O  0.99750981  0.38821205  0.06520839    -0.81500
O1128       O  0.99517742  0.39015832  0.90132090    -0.81800
Eu1129     Eu  0.99619176  0.42395162  0.98372779     2.39200
O1130       O  0.96259599  0.46574380  0.03985980    -0.89300
O1131       O  0.53504147  0.45710491  0.92564875    -0.92900
C1132       C  0.99883697  0.39868357  0.85317790     1.01800
C1133       C  0.00016805  0.39498855  0.11417165     1.01600
C1134       C  0.58793662  0.38848587  0.98426817     1.01600
C1135       C  0.90648851  0.41048263  0.02316085     0.99400
H1136       H  0.55118648  0.43648846  0.05693156     0.29200
O1137       O  0.53555823  0.45498857  0.03677842    -1.01700
H1138       H  0.94205689  0.44945150  0.90968541     0.29200
O1139       O  0.95875215  0.46524980  0.92947929    -1.04200
O1140       O  0.00176166  0.06585384  0.13414067    -0.81500
O1141       O  0.99518656  0.07113670  0.83495837    -0.81000
O1142       O  0.61129565  0.48533827  0.06097293    -0.79400
O1143       O  0.88791715  0.50883520  0.06598305    -0.82800
O1144       O  0.88826909  0.00243252  0.90073356    -0.80600
O1145       O  0.60789998  0.99430536  0.90051983    -0.79300
O1146       O  0.56179201  0.10181066  0.99559575    -0.80800
O1147       O  0.94100648  0.11270366  0.99191729    -0.82700
O1148       O  0.60394815  0.04966513  0.00806090    -0.79500
O1149       O  0.89408939  0.06954411  0.99423293    -0.82100
O1150       O  0.57048052  0.49460812  0.12934693    -0.77900
O1151       O  0.56550833  0.99970915  0.83260892    -0.77900
O1152       O  0.93004808  0.00154364  0.83259234    -0.77500
O1153       O  0.93092788  0.50075978  0.13320600    -0.81000
O1154       O  0.00325885  0.10927626  0.06698750    -0.80500
O1155       O  0.00072511  0.11187531  0.90434370    -0.78800
Eu1156     Eu  0.00133678  0.49811311  0.09879425     2.39800
Eu1157     Eu  0.99772410  0.00110037  0.87035593     2.39600
Eu1158     Eu  0.57440429  0.48996264  0.98240212     2.38400
Eu1159     Eu  0.92424536  0.50663676  0.98745686     2.39900
Eu1160     Eu  0.00027551  0.07466385  0.98413352     2.39800
O1161       O  0.96018688  0.04205626  0.92755201    -0.93200
O1162       O  0.53770398  0.03095868  0.03572258    -0.92100
C1163       C  0.00339607  0.10116067  0.11575148     1.02000
C1164       C  0.99706834  0.10592908  0.85537150     1.00700
C1165       C  0.60498062  0.49039049  0.10947472     1.00100
C1166       C  0.89577073  0.50420142  0.11430700     1.02100
C1167       C  0.89565586  0.00104651  0.85187924     1.01000
C1168       C  0.60021332  0.99839949  0.85195179     0.99800
C1169       C  0.59374913  0.08614896  0.01114672     0.99900
C1170       C  0.90735884  0.10297778  0.00235957     1.02500
H1171       H  0.55497445  0.04958128  0.90812183     0.29900
O1172       O  0.53847091  0.03334332  0.92717491    -1.05400
H1173       H  0.94757107  0.05579470  0.06106120     0.31900
O1174       O  0.96264836  0.03864984  0.03858832    -1.07900
N1175       N  0.73992994  0.31891196  0.16813044    -0.37000
N1176       N  0.69245409  0.25173133  0.14689260    -0.57500
N1177       N  0.75127993  0.19244968  0.15188329    -0.37000
N1178       N  0.79992810  0.25716466  0.16472843    -0.57500
C1179       C  0.70789946  0.33696903  0.14866722     0.26600
C1180       C  0.76908313  0.33939966  0.15193337     0.26600
C1181       C  0.72364317  0.17341674  0.12812857     0.26600
C1182       C  0.78438420  0.17680650  0.13383558     0.26600
C1183       C  0.66957309  0.28189948  0.16262471     0.35200
C1184       C  0.67276659  0.21988247  0.15258306     0.35200
C1185       C  0.81980296  0.28903661  0.17139163     0.35200
C1186       C  0.82537463  0.22652275  0.16932240     0.35200
C1187       C  0.71611805  0.37250333  0.12750951    -0.22300
C1188       C  0.75512478  0.37364281  0.12866299    -0.22300
C1189       C  0.73907303  0.14318598  0.09813095    -0.22300
C1190       C  0.77761420  0.14571793  0.10087170    -0.22300
C1191       C  0.63547690  0.26867175  0.18033580    -0.23300
C1192       C  0.63723966  0.22918248  0.17228143    -0.23300
C1193       C  0.85734582  0.27842846  0.18238471    -0.23300
C1194       C  0.86093551  0.23876196  0.18240394    -0.23300
C1195       C  0.67373645  0.31835812  0.14072567    -0.18700
C1196       C  0.80751306  0.32559303  0.15200225    -0.18700
C1197       C  0.82020211  0.19100783  0.14485140    -0.18700
C1198       C  0.68498465  0.18442911  0.13114399    -0.18700
H1199       H  0.69651594  0.39327937  0.10820781     0.14200
H1200       H  0.77137358  0.39547327  0.11049217     0.14200
H1201       H  0.72423286  0.12271459  0.07467580     0.14200
H1202       H  0.79783587  0.12744477  0.07905679     0.14200
H1203       H  0.61118684  0.28584267  0.19511723     0.12500
H1204       H  0.61544348  0.20924141  0.18003214     0.12500
H1205       H  0.88029874  0.29744664  0.18401779     0.12500
H1206       H  0.88749770  0.22118678  0.18459041     0.12500
H1207       H  0.74175192  0.29235266  0.18744988     0.25800
H1208       H  0.74784059  0.21428335  0.17984413     0.25800
C1209       C  0.49793168  0.25048001  0.23969755    -0.02800
C1210       C  0.74975516  0.49610133  0.23591311    -0.02800
C1211       C  0.00026925  0.25237446  0.72894539    -0.02800
C1212       C  0.74971689  0.49788620  0.74024210    -0.02800
C1213       C  0.64158148  0.48785879  0.19548036    -0.26700
C1214       C  0.64127472  0.49312994  0.14177737    -0.14800
C1215       C  0.67663311  0.00923818  0.11829821     0.35900
C1216       C  0.71074481  0.00989893  0.14807703    -0.26100
C1217       C  0.71147723  0.49704791  0.20193694    -0.15400
C1218       C  0.67543371  0.49048432  0.22523340     0.37000
N1219       N  0.67304562  0.48538730  0.27988903    -0.89600
H1220       H  0.61537532  0.48156839  0.21488464     0.18100
H1221       H  0.73545689  0.02088493  0.12967693     0.18100
N1222       N  0.67715115  0.02279451  0.06580213    -0.88600
H1223       H  0.66361474  0.45778104  0.28673857     0.35400
H1224       H  0.65237799  0.50581489  0.29332577     0.40500
H1225       H  0.69778241  0.00575239  0.04558983     0.40200
H1226       H  0.68546551  0.05145615  0.06617878     0.35100
C1227       C  0.85586326  0.52056749  0.19494023    -0.26700
C1228       C  0.86030261  0.50113951  0.14752492    -0.14800
C1229       C  0.82832877  0.48143873  0.12895641     0.35900
C1230       C  0.79553425  0.47819557  0.15975374    -0.26100
C1231       C  0.78888092  0.50024668  0.20515542    -0.15400
C1232       C  0.82264230  0.01988909  0.22066786     0.37000
N1233       N  0.82211648  0.04282863  0.26722830    -0.89600
H1234       H  0.88131647  0.03282324  0.20657654     0.18100
H1235       H  0.77381872  0.45967074  0.14596509     0.18100
N1236       N  0.82802202  0.46560020  0.07754091    -0.88600
H1237       H  0.82267832  0.57416952  0.25809044     0.35400
H1238       H  0.84536723  0.03348627  0.29049449     0.40500
H1239       H  0.80594399  0.48038888  0.05685408     0.40200
H1240       H  0.82127171  0.43656570  0.07983236     0.35100
C1241       C  0.52657855  0.31532815  0.20739842    -0.26700
C1242       C  0.00148965  0.28711025  0.20498168    -0.14800
C1243       C  0.97428631  0.29534579  0.16454180     0.35900
C1244       C  0.97397556  0.33107657  0.13719576    -0.26100
C1245       C  0.00027705  0.35946957  0.14773795    -0.15400
C1246       C  0.52516524  0.35071066  0.18047221     0.37000
N1247       N  0.55519483  0.37646774  0.18886854    -0.89600
H1248       H  0.55156771  0.31010774  0.23107941     0.18100
H1249       H  0.95300496  0.33670867  0.10672174     0.18100
N1250       N  0.94708588  0.26751529  0.15068241    -0.88600
H1251       H  0.54316316  0.40301906  0.20234221     0.35400
H1252       H  0.56839065  0.38130482  0.15341408     0.40500
H1253       H  0.96172477  0.24474729  0.13103994     0.40200
H1254       H  0.92763249  0.27938448  0.12332815     0.35100
C1255       C  0.97364858  0.18188306  0.21233757    -0.27900
C1256       C  0.00072288  0.21098445  0.20593585    -0.14800
C1257       C  0.52506639  0.20419285  0.16249216     0.35900
C1258       C  0.52710199  0.16763518  0.13624490    -0.26100
C1259       C  0.00487772  0.13625506  0.15114327    -0.15400
C1260       C  0.97719240  0.14472872  0.18918028     0.37000
N1261       N  0.95095375  0.11654323  0.20382855    -0.89600
H1262       H  0.94799350  0.18706243  0.23419920     0.18100
H1263       H  0.54762140  0.16274437  0.10535123     0.18100
N1264       N  0.54922406  0.23381501  0.14552580    -0.88600
H1265       H  0.96657589  0.09268546  0.21990924     0.35400
H1266       H  0.93738658  0.10718875  0.17029311     0.40500
H1267       H  0.53206284  0.25427252  0.12500143     0.40200
H1268       H  0.56850558  0.22259594  0.11777477     0.35100
C1269       C  0.64978072  0.35234263  0.00360473    -0.26700
C1270       C  0.61006140  0.35506386  0.00629917    -0.14800
C1271       C  0.59209571  0.33422746  0.04532371     0.35900
C1272       C  0.61259812  0.32459326  0.09016874    -0.26100
C1273       C  0.65219457  0.32668547  0.09146939    -0.15400
C1274       C  0.67090708  0.33401802  0.04392691     0.37000
N1275       N  0.71079397  0.32365021  0.03736574    -0.89600
H1276       H  0.66407058  0.36532508  0.97141486     0.18100
H1277       H  0.59694908  0.31644712  0.12368018     0.18100
N1278       N  0.55250686  0.32622152  0.04142091    -0.88600
H1279       H  0.71945726  0.33053069  0.99991383     0.35400
H1280       H  0.71453801  0.29341592  0.04090131     0.40500
H1281       H  0.54397708  0.31115541  0.07408169     0.40200
H1282       H  0.54974115  0.30738796  0.00989545     0.35100
C1283       C  0.85973625  0.35979708  0.03363974    -0.26700
C1284       C  0.88305398  0.38674854  0.05609968    -0.14800
C1285       C  0.88420581  0.39070152  0.11080901     0.35900
C1286       C  0.85920444  0.37078911  0.14157784    -0.26100
C1287       C  0.83445886  0.34553460  0.11888608    -0.15400
C1288       C  0.83593752  0.33860846  0.06466498     0.37000
N1289       N  0.81369777  0.31010032  0.04035722    -0.89600
H1290       H  0.85985092  0.35541005  0.99197187     0.18100
H1291       H  0.85925467  0.37487394  0.18332264     0.18100
N1292       N  0.91103423  0.41439448  0.13559852    -0.88600
H1293       H  0.78499858  0.31736115  0.04763778     0.35400
H1294       H  0.82084586  0.28316812  0.05747039     0.40500
H1295       H  0.92802361  0.39641317  0.16000639     0.40200
H1296       H  0.89587240  0.43346312  0.16045807     0.35100
C1297       C  0.87928270  0.11138942  0.08700697    -0.26700
C1298       C  0.88657669  0.12793392  0.03857250    -0.14800
C1299       C  0.88047891  0.16799917  0.03083107     0.35900
C1300       C  0.86280215  0.19036747  0.07000160    -0.26100
C1301       C  0.85222898  0.17271825  0.11646034    -0.15400
C1302       C  0.86258030  0.13375953  0.12639555     0.37000
N1303       N  0.85105217  0.11611487  0.17360977    -0.89600
H1304       H  0.88611501  0.08087400  0.09418632     0.18100
H1305       H  0.85457852  0.22065481  0.06263622     0.18100
N1306       N  0.89077655  0.18545316  0.98293185    -0.88600
H1307       H  0.83253339  0.09452773  0.16401288     0.35400
H1308       H  0.87502572  0.10289079  0.19179642     0.40500
H1309       H  0.90973053  0.20691157  0.99140208     0.40200
H1310       H  0.86619077  0.19905664  0.96648826     0.35100
C1311       C  0.63633668  0.14058519  0.01596286    -0.26700
C1312       C  0.61772776  0.11123495  0.04086435    -0.14800
C1313       C  0.61746527  0.10946392  0.09553999     0.35900
C1314       C  0.63820763  0.13509647  0.12447532    -0.26100
C1315       C  0.65827193  0.16315964  0.09975293    -0.15400
C1316       C  0.65669212  0.16690428  0.04485968     0.37000
N1317       N  0.67621802  0.19602495  0.01731232    -0.89600
H1318       H  0.63506348  0.14301183  0.97403819     0.18100
H1319       H  0.63923874  0.13260952  0.16642922     0.18100
N1320       N  0.59536451  0.08236846  0.12217471    -0.88600
H1321       H  0.65557249  0.21378556  0.99795411     0.35400
H1322       H  0.69023903  0.21425834  0.04247230     0.40500
H1323       H  0.57582701  0.09831249  0.14535294     0.40200
H1324       H  0.61363227  0.06719339  0.14805783     0.35100
C1325       C  0.83108417  0.97593108  0.83749920    -0.26700
C1326       C  0.86079518  0.99750147  0.81824075    -0.14800
C1327       C  0.85466679  0.52109327  0.77885279     0.35900
C1328       C  0.81931559  0.51987282  0.75294533    -0.26100
C1329       C  0.78641693  0.99909939  0.76875564    -0.15400
C1330       C  0.79507083  0.97552598  0.81295720     0.37000
N1331       N  0.76783051  0.95048976  0.83334055    -0.89600
H1332       H  0.83582139  0.95889017  0.87252139     0.18100
H1333       H  0.81640509  0.53607808  0.71712690     0.18100
N1334       N  0.88221748  0.54622171  0.75921082    -0.88600
H1335       H  0.76360362  0.95717723  0.87254581     0.35400
H1336       H  0.77994068  0.92203260  0.83170600     0.40500
H1337       H  0.90632207  0.01906050  0.73892732     0.40200
H1338       H  0.89225294  0.05934051  0.77369047     0.35100
C1339       C  0.67670087  0.49339471  0.74421614    -0.26700
C1340       C  0.70876845  0.00128600  0.76875465    -0.14800
C1341       C  0.70408052  0.01611614  0.81985062     0.35900
C1342       C  0.66823130  0.01602092  0.84423771    -0.26100
C1343       C  0.63535797  0.00276305  0.81930060    -0.15400
C1344       C  0.64073156  0.49344886  0.76859285     0.37000
N1345       N  0.60856836  0.48286968  0.73847871    -0.89600
H1346       H  0.67807281  0.48544891  0.70360882     0.18100
H1347       H  0.66629709  0.02669391  0.88380370     0.18100
N1348       N  0.73461312  0.03336803  0.84678386    -0.88600
H1349       H  0.58808584  0.50616590  0.73890390     0.35400
H1350       H  0.59711217  0.45878229  0.75577944     0.40500
H1351       H  0.72620002  0.06251089  0.85397650     0.40200
H1352       H  0.73826718  0.01983953  0.88287994     0.35100
C1353       C  0.50756038  0.13872676  0.76780947    -0.26700
C1354       C  0.99534568  0.14271287  0.82243197    -0.14800
C1355       C  0.98584957  0.18008597  0.84465083     0.35900
C1356       C  0.98932174  0.21452429  0.81543373    -0.26100
C1357       C  0.00054098  0.21386806  0.76291333    -0.15400
C1358       C  0.50972570  0.17294121  0.73784000     0.37000
N1359       N  0.51868229  0.16870887  0.68395586    -0.89600
H1360       H  0.51397780  0.11071190  0.74962495     0.18100
H1361       H  0.98104935  0.24197396  0.83370360     0.18100
N1362       N  0.97140622  0.18319908  0.89674989    -0.88600
H1363       H  0.49807721  0.15213376  0.66660820     0.35400
H1364       H  0.54505439  0.15314358  0.68080227     0.40500
H1365       H  0.94515637  0.17039562  0.89712383     0.40200
H1366       H  0.96592100  0.21228503  0.90751166     0.35100
C1367       C  0.97478626  0.36061953  0.77794321    -0.26700
C1368       C  0.00124413  0.36406081  0.81796005    -0.14800
C1369       C  0.52898265  0.33068000  0.82332689     0.35900
C1370       C  0.52728146  0.29517581  0.79586082    -0.26100
C1371       C  0.99695256  0.29166883  0.76163680    -0.15400
C1372       C  0.97219469  0.32559638  0.74971630     0.37000
N1373       N  0.94523730  0.32623351  0.70770132    -0.89600
H1374       H  0.95519276  0.38524142  0.76897507     0.18100
H1375       H  0.54842001  0.27191340  0.80473399     0.18100
N1376       N  0.55797269  0.33459443  0.86203498    -0.88600
H1377       H  0.95115455  0.34874693  0.68238228     0.35400
H1378       H  0.91806744  0.33274049  0.72293630     0.40500
H1379       H  0.58452172  0.32947306  0.84436847     0.40200
H1380       H  0.55507052  0.31308021  0.89004920     0.35100
C1381       C  0.92499969  0.23787932  0.61690444    -0.26700
C1382       C  0.88986708  0.23962472  0.64402495    -0.14800
C1383       C  0.89176783  0.24525419  0.69829371     0.35900
C1384       C  0.92743004  0.24845347  0.72304463    -0.26100
C1385       C  0.96271603  0.24833244  0.69574717    -0.15400
C1386       C  0.96066104  0.24192114  0.64145356     0.37000
N1387       N  0.99432364  0.23781136  0.61047546    -0.89600
H1388       H  0.92527072  0.23332565  0.57529885     0.18100
H1389       H  0.92742231  0.25270512  0.76469850     0.18100
N1390       N  0.85823983  0.24797930  0.72971151    -0.88600
H1391       H  0.99177898  0.25831775  0.58062375     0.35400
H1392       H  0.99537745  0.21029040  0.59313721     0.40500
H1393       H  0.84365783  0.22264003  0.72468598     0.40200
H1394       H  0.84084310  0.27192392  0.71742047     0.35100
C1395       C  0.57489558  0.22930995  0.71034956    -0.26700
C1396       C  0.54102370  0.25153008  0.69524837    -0.14800
C1397       C  0.54611256  0.28094006  0.65778371     0.35900
C1398       C  0.58155029  0.28445958  0.63333261    -0.26100
C1399       C  0.61427897  0.26087373  0.64645071    -0.15400
C1400       C  0.61072173  0.23303442  0.68599838     0.37000
N1401       N  0.64324379  0.20820260  0.70112260    -0.89600
H1402       H  0.57417909  0.20908356  0.74220344     0.18100
H1403       H  0.58341226  0.30653254  0.60370039     0.18100
N1404       N  0.51543226  0.30832629  0.64481547    -0.88600
H1405       H  0.65060117  0.19022786  0.66951891     0.35400
H1406       H  0.63624680  0.18978074  0.73134643     0.40500
H1407       H  0.51069587  0.30700436  0.60495287     0.40200
H1408       H  0.52406305  0.33617205  0.65340786     0.35100
C1409       C  0.74855263  0.07342060  0.72924709    -0.26700
C1410       C  0.74259549  0.03725228  0.70423070    -0.14800
C1411       C  0.72937728  0.03959642  0.65217773     0.35900
C1412       C  0.72647384  0.07574399  0.62631574    -0.26100
C1413       C  0.73531379  0.11126378  0.65037359    -0.15400
C1414       C  0.74571367  0.10972958  0.70323624     0.37000
N1415       N  0.75394256  0.14473201  0.73048665    -0.89600
H1416       H  0.75692281  0.07333299  0.76962121     0.18100
H1417       H  0.71708520  0.07552018  0.58620382     0.18100
N1418       N  0.71739022  0.00600874  0.62517217    -0.88600
H1419       H  0.76228315  0.13852314  0.76874446     0.35400
H1420       H  0.72854632  0.16209749  0.73263067     0.40500
H1421       H  0.73362449  0.00243332  0.59142020     0.40200
H1422       H  0.68889665  0.01132841  0.61396830     0.35100
C1423       C  0.74277386  0.38839642  0.69304659    -0.26700
C1424       C  0.76692309  0.38639516  0.65010935    -0.14800
C1425       C  0.78766317  0.41953913  0.63912018     0.35900
C1426       C  0.78177179  0.45402312  0.66907599    -0.26100
C1427       C  0.75440433  0.45787599  0.70917527    -0.15400
C1428       C  0.73675732  0.42264539  0.72292857     0.37000
N1429       N  0.71324293  0.42014399  0.76788878    -0.89600
H1430       H  0.72747151  0.36312359  0.70326587     0.18100
H1431       H  0.79799253  0.47881782  0.65980620     0.18100
N1432       N  0.81470792  0.41829321  0.59738338    -0.88600
H1433       H  0.72473650  0.39760928  0.79137861     0.35400
H1434       H  0.68630733  0.41226589  0.75571722     0.40500
H1435       H  0.83662854  0.39764719  0.60702360     0.40200
H1436       H  0.82725813  0.44493467  0.59385268     0.35100
C1437       C  0.86689756  0.02600458  0.47531958    -0.26700
C1438       C  0.89148071  0.02444859  0.51857689    -0.14800
C1439       C  0.88151100  0.04660752  0.56312221     0.35900
C1440       C  0.85339699  0.07702467  0.55837446    -0.26100
C1441       C  0.83524539  0.08419311  0.51037997    -0.15400
C1442       C  0.83941208  0.05678198  0.47024919     0.37000
N1443       N  0.81874621  0.06251729  0.42249825    -0.89600
H1444       H  0.87372089  0.00806360  0.44158751     0.18100
H1445       H  0.84846838  0.09717846  0.59035839     0.18100
N1446       N  0.90284839  0.04244903  0.61067268    -0.88600
H1447       H  0.80343871  0.03789490  0.41573814     0.35400
H1448       H  0.83840050  0.06459496  0.39246667     0.40500
H1449       H  0.92315975  0.01910033  0.60803245     0.40200
H1450       H  0.88375432  0.03493429  0.63938889     0.35100
C1451       C  0.59127751  0.13610433  0.51445162    -0.26700
C1452       C  0.59480526  0.17096553  0.48783290    -0.14800
C1453       C  0.56676254  0.18392585  0.45102038     0.35900
C1454       C  0.54026322  0.15799050  0.43414225    -0.26100
C1455       C  0.54092212  0.12086509  0.45532766    -0.15400
C1456       C  0.56400671  0.11091166  0.49860863     0.37000
N1457       N  0.56240826  0.07355107  0.52260125    -0.89600
H1458       H  0.61181221  0.12690996  0.54421750     0.18100
H1459       H  0.52145210  0.16536868  0.40166101     0.18100
N1460       N  0.56757519  0.22155725  0.42731832    -0.88600
H1461       H  0.55680868  0.07795613  0.56205749     0.35400
H1462       H  0.58921752  0.05887508  0.51927941     0.40500
H1463       H  0.56124832  0.24229546  0.45616854     0.40200
H1464       H  0.54579607  0.22527884  0.39962344     0.35100
C1465       C  0.64628742  0.39166878  0.38277990    -0.26700
C1466       C  0.66078277  0.40128684  0.43154760    -0.14800
C1467       C  0.65294670  0.43846932  0.45219985     0.35900
C1468       C  0.62805264  0.46470829  0.42522067    -0.26100
C1469       C  0.61217161  0.45465775  0.37672445    -0.15400
C1470       C  0.62274412  0.41808306  0.35481601     0.37000
N1471       N  0.60799547  0.40688516  0.30532908    -0.89600
H1472       H  0.65202072  0.36265797  0.36726959     0.18100
H1473       H  0.61904809  0.49168709  0.44436724     0.18100
N1474       N  0.66812136  0.44871416  0.50174207    -0.88600
H1475       H  0.59323704  0.38168600  0.31040154     0.35400
H1476       H  0.63093520  0.39982071  0.28079141     0.40500
H1477       H  0.64527840  0.45618675  0.52636400     0.40200
H1478       H  0.68363201  0.47341455  0.49681217     0.35100
C1479       C  0.93832725  0.31316940  0.47772415    -0.26700
C1480       C  0.90315643  0.32444497  0.45450443    -0.14800
C1481       C  0.90151119  0.35281271  0.41538965     0.35900
C1482       C  0.93284573  0.37456294  0.40698093    -0.26100
C1483       C  0.96589318  0.36780659  0.43668003    -0.15400
C1484       C  0.97011219  0.33480605  0.46838460     0.37000
N1485       N  0.00532655  0.32599178  0.49502342    -0.89600
H1486       H  0.94044290  0.28967669  0.50568976     0.18100
H1487       H  0.92966750  0.39970167  0.38173093     0.18100
N1488       N  0.86730846  0.36139435  0.38637012    -0.88600
H1489       H  0.01437136  0.29728477  0.48618770     0.35400
H1490       H  0.99970338  0.32766378  0.53457718     0.40500
H1491       H  0.87355140  0.35766069  0.34698302     0.40200
H1492       H  0.85995801  0.39082601  0.39264888     0.35100
C1493       C  0.57862580  0.28356822  0.33568288    -0.26700
C1494       C  0.61036351  0.25809209  0.32423298    -0.14800
C1495       C  0.60321053  0.22565473  0.29259523     0.35900
C1496       C  0.56682044  0.22199860  0.26909671    -0.26100
C1497       C  0.53538521  0.24963404  0.27628569    -0.15400
C1498       C  0.54181674  0.27890043  0.31490571     0.37000
N1499       N  0.51217753  0.30556523  0.33345799    -0.89600
H1500       H  0.58206594  0.30714786  0.36297533     0.18100
H1501       H  0.56376793  0.19647603  0.24556529     0.18100
N1502       N  0.63174528  0.19458163  0.28587927    -0.88600
H1503       H  0.49108986  0.29018204  0.35113216     0.35400
H1504       H  0.50097973  0.32221628  0.30282152     0.40500
H1505       H  0.63910091  0.18325134  0.32243743     0.40200
H1506       H  0.65600721  0.20577893  0.26984342     0.35100
C1507       C  0.89554269  0.27266732  0.29801235    -0.26700
C1508       C  0.88982320  0.23817961  0.32562950    -0.14800
C1509       C  0.92277532  0.21313589  0.33431848     0.35900
C1510       C  0.95852649  0.22100370  0.31280683    -0.26100
C1511       C  0.96277852  0.25141059  0.27691052    -0.15400
C1512       C  0.93157862  0.28033336  0.27578282     0.37000
N1513       N  0.93749953  0.31932312  0.25966412    -0.89600
H1514       H  0.87251690  0.29499515  0.29624141     0.18100
H1515       H  0.98240021  0.20018223  0.31954747     0.18100
N1516       N  0.92015695  0.17875203  0.36472644    -0.88600
H1517       H  0.93338306  0.33757811  0.29188458     0.35400
H1518       H  0.91706313  0.32846581  0.23223320     0.40500
H1519       H  0.93915358  0.18068365  0.39578115     0.40200
H1520       H  0.92921356  0.15479916  0.34196551     0.35100
C1521       C  0.73288260  0.42298349  0.24914839    -0.26700
C1522       C  0.75483975  0.45496916  0.26388767    -0.14800
C1523       C  0.78337382  0.44635740  0.30213132     0.35900
C1524       C  0.78513385  0.41070426  0.32859132    -0.26100
C1525       C  0.76104327  0.38085976  0.31691273    -0.15400
C1526       C  0.73432828  0.38729512  0.27659973     0.37000
N1527       N  0.70752745  0.35849650  0.26503821    -0.89600
H1528       H  0.71374665  0.42526986  0.21629136     0.18100
H1529       H  0.80503360  0.40702006  0.36023533     0.18100
N1530       N  0.81089075  0.47365056  0.31529263    -0.88600
H1531       H  0.68740509  0.36936825  0.23795722     0.35400
H1532       H  0.69203553  0.35378073  0.29858683     0.40500
H1533       H  0.83790094  0.46077799  0.30702280     0.40200
H1534       H  0.80998025  0.47892707  0.35523098     0.35100
C1535       C  0.73348280  0.07093843  0.34998908    -0.26700
C1536       C  0.73780713  0.10695253  0.32509502    -0.14800
C1537       C  0.74341916  0.10604286  0.27085101     0.35900
C1538       C  0.74515306  0.07035952  0.24398861    -0.26100
C1539       C  0.74440706  0.03379741  0.26944299    -0.15400
C1540       C  0.73649511  0.03498833  0.32353449     0.37000
N1541       N  0.72963317  0.00061019  0.35231462    -0.89600
H1542       H  0.72797732  0.07015777  0.39127573     0.18100
H1543       H  0.74962654  0.07111678  0.20243339     0.18100
N1544       N  0.74814842  0.14059646  0.24163449    -0.88600
H1545       H  0.70218138  0.00388835  0.36776447     0.35400
H1546       H  0.74840714  0.99886214  0.38393892     0.40500
H1547       H  0.77256370  0.15354007  0.25491736     0.40200
H1548       H  0.72419267  0.15964725  0.24701122     0.35100
O1549       O  0.74434919  0.67612849  0.34042501    -0.80500
O1550       O  0.74586943  0.68181601  0.63938602    -0.82000
O1551       O  0.77778543  0.62182605  0.49987295    -0.79100
O1552       O  0.66204143  0.66704296  0.49548234    -0.77500
O1553       O  0.63066316  0.72693928  0.49706190    -0.79200
O1554       O  0.83462290  0.65089870  0.49934149    -0.80200
O1555       O  0.72875885  0.64208467  0.57311864    -0.81500
O1556       O  0.72962692  0.63790773  0.40887937    -0.81800
Eu1557     Eu  0.73104520  0.67475430  0.49023202     2.39200
O1558       O  0.70575262  0.72463265  0.54338386    -0.89300
O1559       O  0.77739870  0.69571340  0.43191728    -0.92900
C1560       C  0.73665791  0.64271400  0.36030857     1.01800
C1561       C  0.73703962  0.64787854  0.62105392     1.01600
C1562       C  0.81401706  0.62122871  0.50463660     1.01600
C1563       C  0.63157706  0.68991441  0.49732839     0.99400
H1564       H  0.79091492  0.68086380  0.56498210     0.29200
O1565       O  0.77826469  0.70045519  0.54323933    -1.01700
H1566       H  0.68468474  0.70797303  0.41615580     0.29200
O1567       O  0.70412035  0.72141194  0.43429083    -1.04200
O1568       O  0.75961210  0.81784273  0.63391614    -0.81500
O1569       O  0.75334397  0.81186783  0.33578621    -0.81000
O1570       O  0.85907466  0.72369332  0.56661952    -0.79400
O1571       O  0.64435748  0.77912251  0.57013154    -0.82800
O1572       O  0.64145711  0.76826944  0.40642604    -0.80600
O1573       O  0.85866276  0.71803611  0.40376438    -0.79300
O1574       O  0.83874860  0.82758391  0.47382936    -0.80800
O1575       O  0.72031005  0.87185342  0.46971183    -0.82700
O1576       O  0.87171888  0.76829614  0.47455614    -0.79500
O1577       O  0.66479942  0.84050189  0.46861832    -0.82100
O1578       O  0.82039540  0.74139736  0.63464787    -0.77900
O1579       O  0.81812356  0.73934294  0.33831457    -0.77900
O1580       O  0.68088007  0.74952522  0.33914299    -0.77500
O1581       O  0.68450088  0.75671858  0.63519832    -0.81000
O1582       O  0.77427388  0.85748005  0.56644864    -0.80500
O1583       O  0.77036119  0.85323714  0.40070731    -0.78800
Eu1584     Eu  0.75218657  0.74959381  0.59910745     2.39800
Eu1585     Eu  0.74950578  0.74445366  0.37518407     2.39600
Eu1586     Eu  0.82347883  0.72192530  0.48585442     2.38400
Eu1587     Eu  0.67838646  0.77213916  0.48753920     2.39900
Eu1588     Eu  0.76996798  0.82080464  0.48528704     2.39800
O1589       O  0.72393959  0.79422887  0.43130354    -0.93200
O1590       O  0.79779046  0.77240916  0.54003137    -0.92100
C1591       C  0.76766564  0.85152534  0.61487488     1.02000
C1592       C  0.76185636  0.84608622  0.35293381     1.00700
C1593       C  0.85398830  0.73256161  0.61467361     1.00100
C1594       C  0.65063636  0.76778156  0.61728682     1.02100
C1595       C  0.64699152  0.75792536  0.35871965     1.01000
C1596       C  0.85236583  0.72972499  0.35674338     0.99800
C1597       C  0.86938844  0.80528518  0.46831710     0.99900
C1598       C  0.68444670  0.87022516  0.46088917     1.02500
H1599       H  0.81266689  0.78210641  0.41102354     0.29900
O1600       O  0.79425722  0.77026424  0.43237147    -1.05400
H1601       H  0.71084157  0.81962465  0.56133386     0.31900
O1602       O  0.72366143  0.79846799  0.54242677    -1.07900
N1603       N  0.03313242  0.94423856  0.40392692    -0.37000
N1604       N  0.54074590  0.53561759  0.37780519    -0.57500
N1605       N  0.98170643  0.54483544  0.46532662    -0.37000
N1606       N  0.97286136  0.46476471  0.48494629    -0.57500
C1607       C  0.54880186  0.95181336  0.36235398     0.26600
C1608       C  0.00795077  0.91694172  0.39646036     0.26600
C1609       C  0.48963393  0.58189784  0.44415092     0.26600
C1610       C  0.94622660  0.54698934  0.48538220     0.26600
C1611       C  0.57495355  0.01404876  0.36177483     0.35200
C1612       C  0.54997094  0.56968775  0.39821651     0.35200
C1613       C  0.97576332  0.92521498  0.47925157     0.35200
C1614       C  0.94516906  0.47893672  0.51657798     0.35200
C1615       C  0.53347287  0.92877839  0.32466240    -0.22300
C1616       C  0.00442999  0.90902097  0.34379838    -0.22300
C1617       C  0.46036695  0.60806795  0.45778676    -0.22300
C1618       C  0.93048920  0.58486416  0.47968032    -0.22300
C1619       C  0.60343348  0.04016502  0.36440425    -0.23300
C1620       C  0.58835609  0.57527791  0.39113091    -0.23300
C1621       C  0.95113263  0.91485738  0.51828137    -0.23300
C1622       C  0.93011266  0.44915538  0.54415191    -0.23300
C1623       C  0.58054445  0.97366233  0.35626934    -0.18700
C1624       C  0.98739551  0.90127233  0.43694577    -0.18700
C1625       C  0.92903068  0.51696567  0.51276747    -0.18700
C1626       C  0.52527852  0.59277901  0.42949825    -0.18700
H1627       H  0.53995769  0.92832375  0.28373187     0.14200
H1628       H  0.98641458  0.88857900  0.32541032     0.14200
H1629       H  0.45977889  0.63931308  0.45498777     0.14200
H1630       H  0.90327110  0.59714844  0.49194492     0.14200
H1631       H  0.63365427  0.03459508  0.35900563     0.12500
H1632       H  0.60430980  0.59912482  0.40526983     0.12500
H1633       H  0.94348479  0.88598086  0.52874118     0.12500
H1634       H  0.90616007  0.45128435  0.57045861     0.12500
H1635       H  0.04340575  0.95405452  0.43950706     0.25800
H1636       H  0.00257590  0.52221188  0.46855358     0.25800
O1637       O  0.99981179  0.93272586  0.83147867    -0.80500
O1638       O  0.00047398  0.92919443  0.13231863    -0.82000
O1639       O  0.55136753  0.88210644  0.96876503    -0.79100
O1640       O  0.93525293  0.89280319  0.99757094    -0.77500
O1641       O  0.89294296  0.94501545  0.00651072    -0.79200
O1642       O  0.60055912  0.92110289  0.98192001    -0.80200
O1643       O  0.99540215  0.88745342  0.06348991    -0.81500
O1644       O  0.99492759  0.88883978  0.89777433    -0.81800
Eu1645     Eu  0.99476697  0.92242378  0.98052474     2.39200
O1646       O  0.96092372  0.96437974  0.03637192    -0.89300
O1647       O  0.53447588  0.95672612  0.92569832    -0.92900
C1648       C  0.99837380  0.89736534  0.84956988     1.01800
C1649       C  0.99801765  0.89445708  0.11252698     1.01600
C1650       C  0.58628013  0.88747453  0.97756965     1.01600
C1651       C  0.90322128  0.90878177  0.01214522     0.99400
H1652       H  0.55217891  0.93627827  0.05664470     0.29200
O1653       O  0.53615686  0.95469572  0.03684363    -1.01700
H1654       H  0.94162430  0.94795504  0.90482239     0.29200
O1655       O  0.95822688  0.96367027  0.92488938    -1.04200
O1656       O  0.00248661  0.56626270  0.13714768    -0.81500
O1657       O  0.99738498  0.57096313  0.83824998    -0.81000
O1658       O  0.61277359  0.98682240  0.05922638    -0.79400
O1659       O  0.88738974  0.00570189  0.06130366    -0.82800
O1660       O  0.88853839  0.50349993  0.90696270    -0.80600
O1661       O  0.60916389  0.49426779  0.90259524    -0.79300
O1662       O  0.56188726  0.60286687  0.99460887    -0.80800
O1663       O  0.94418210  0.61498529  0.99847573    -0.82700
O1664       O  0.60342754  0.55048184  0.00884852    -0.79500
O1665       O  0.89679818  0.57243659  0.00090227    -0.82100
O1666       O  0.57153358  0.99690288  0.12723702    -0.77900
O1667       O  0.56712281  0.50078916  0.83441190    -0.77900
O1668       O  0.93053899  0.50317585  0.83892023    -0.77500
O1669       O  0.93006253  0.00017117  0.12914801    -0.81000
O1670       O  0.00540267  0.60943902  0.06983545    -0.80500
O1671       O  0.00136655  0.61173476  0.90772000    -0.78800
Eu1672     Eu  0.99997581  0.99744119  0.09507790     2.39800
Eu1673     Eu  0.99868069  0.50196777  0.87475184     2.39600
Eu1674     Eu  0.57444905  0.98954239  0.98142289     2.38400
Eu1675     Eu  0.92319930  0.00476449  0.98208420     2.39900
Eu1676     Eu  0.00196669  0.57534079  0.98765489     2.39800
O1677       O  0.96121932  0.54322200  0.93184677    -0.93200
O1678       O  0.53778866  0.53148517  0.03675995    -0.92100
C1679       C  0.00457646  0.60133943  0.11842709     1.02000
C1680       C  0.99896516  0.60564781  0.85874557     1.00700
C1681       C  0.60616497  0.99295880  0.10755739     1.00100
C1682       C  0.89509926  0.00244935  0.10986864     1.02100
C1683       C  0.89615300  0.50247319  0.85815611     1.01000
C1684       C  0.60181771  0.49884950  0.85402498     0.99800
C1685       C  0.59357338  0.58710931  0.01090042     0.99900
C1686       C  0.91035406  0.60584141  0.00880043     1.02500
H1687       H  0.55553339  0.55015575  0.90950915     0.29900
O1688       O  0.53878366  0.53401696  0.92830689    -1.05400
H1689       H  0.94959934  0.55707454  0.06571877     0.31900
O1690       O  0.96440764  0.53996779  0.04297320    -1.07900
N1691       N  0.73497726  0.82218093  0.16054893    -0.37000
N1692       N  0.69005500  0.75341003  0.14215746    -0.57500
N1693       N  0.75066161  0.69624239  0.15014481    -0.37000
N1694       N  0.79711769  0.76241447  0.16340405    -0.57500
C1695       C  0.70259290  0.83923944  0.14063263     0.26600
C1696       C  0.76365809  0.84322846  0.14427240     0.26600
C1697       C  0.72365208  0.67697989  0.12525287     0.26600
C1698       C  0.78417621  0.68279369  0.13073378     0.26600
C1699       C  0.66621435  0.78336646  0.15558969     0.35200
C1700       C  0.67196277  0.72111815  0.15176786     0.35200
C1701       C  0.81588229  0.79517945  0.16742949     0.35200
C1702       C  0.82358521  0.73278001  0.16855531     0.35200
C1703       C  0.70996640  0.87502121  0.11950475    -0.22300
C1704       C  0.74894769  0.87704513  0.12063262    -0.22300
C1705       C  0.73996672  0.64923944  0.09209910    -0.22300
C1706       C  0.77836004  0.65333158  0.09480544    -0.22300
C1707       C  0.63298355  0.76992180  0.17562854    -0.23300
C1708       C  0.63652013  0.72999717  0.17224979    -0.23300
C1709       C  0.85387263  0.78617530  0.17835874    -0.23300
C1710       C  0.85865058  0.74658161  0.18081547    -0.23300
C1711       C  0.66946619  0.81907367  0.13146946    -0.18700
C1712       C  0.80234213  0.83021266  0.14465471    -0.18700
C1713       C  0.81962467  0.69702125  0.14407676    -0.18700
C1714       C  0.68468690  0.68585747  0.13042372    -0.18700
H1715       H  0.68995800  0.89515460  0.09978327     0.14200
H1716       H  0.76470477  0.89918660  0.10230510     0.14200
H1717       H  0.72573329  0.62948866  0.06680620     0.14200
H1718       H  0.79920058  0.63720335  0.07126861     0.14200
H1719       H  0.60791048  0.78714784  0.18759732     0.12500
H1720       H  0.61549676  0.70963191  0.18192006     0.12500
H1721       H  0.87642387  0.80582127  0.17743277     0.12500
H1722       H  0.88568084  0.72987385  0.18318674     0.12500
H1723       H  0.73742515  0.79574314  0.18007146     0.25800
H1724       H  0.74648582  0.71668425  0.17985384     0.25800
C1725       C  0.49896081  0.74899717  0.24110816    -0.02800
C1726       C  0.75095161  0.99642098  0.23465337    -0.02800
C1727       C  0.00136965  0.74937929  0.72881551    -0.02800
C1728       C  0.74732914  0.99869965  0.73759430    -0.02800
C1729       C  0.64280434  0.98890190  0.19333463    -0.26700
C1730       C  0.64214189  0.99674794  0.14025270    -0.14800
C1731       C  0.67628093  0.50337960  0.11874550     0.35900
C1732       C  0.71006032  0.50563972  0.14859046    -0.26100
C1733       C  0.71262974  0.99812370  0.20049899    -0.15400
C1734       C  0.67673075  0.99050007  0.22317359     0.37000
N1735       N  0.67452158  0.98321908  0.27728722    -0.89600
H1736       H  0.61683141  0.98115029  0.21216050     0.18100
H1737       H  0.73488574  0.51540913  0.12921916     0.18100
N1738       N  0.67780631  0.51306079  0.06477188    -0.88600
H1739       H  0.66568589  0.95519469  0.28192150     0.35400
H1740       H  0.65334078  0.00250934  0.29192630     0.40500
H1741       H  0.69839067  0.49424861  0.04721543     0.40200
H1742       H  0.68656373  0.54144893  0.06160962     0.35100
C1743       C  0.85710730  0.01799694  0.19191821    -0.26700
C1744       C  0.85992025  0.99984876  0.14350049    -0.14800
C1745       C  0.82725232  0.98110943  0.12538374     0.35900
C1746       C  0.79483133  0.97845978  0.15696189    -0.26100
C1747       C  0.78979439  0.99964388  0.20337525    -0.15400
C1748       C  0.82080508  0.52195073  0.22256245     0.37000
N1749       N  0.81893828  0.54537972  0.26866471    -0.89600
H1750       H  0.87923782  0.53661802  0.20969613     0.18100
H1751       H  0.77222556  0.96102916  0.14321836     0.18100
N1752       N  0.82600342  0.96540420  0.07391893    -0.88600
H1753       H  0.82628109  0.07160505  0.25702428     0.35400
H1754       H  0.84178470  0.53668057  0.29300678     0.40500
H1755       H  0.80424453  0.98097171  0.05360253     0.40200
H1756       H  0.81812003  0.93673740  0.07619231     0.35100
C1757       C  0.52904775  0.81338088  0.20869775    -0.26700
C1758       C  0.99926935  0.78671168  0.20505297    -0.14800
C1759       C  0.97190483  0.79493550  0.16472767     0.35900
C1760       C  0.97137568  0.83069392  0.13724024    -0.26100
C1761       C  0.99790253  0.85907071  0.14694130    -0.15400
C1762       C  0.52865297  0.84861152  0.18111700     0.37000
N1763       N  0.55986042  0.87307018  0.18832303    -0.89600
H1764       H  0.55367405  0.80776224  0.23295302     0.18100
H1765       H  0.95037988  0.83606888  0.10673607     0.18100
N1766       N  0.94520949  0.76675059  0.15036997    -0.88600
H1767       H  0.54903827  0.90040779  0.20069344     0.35400
H1768       H  0.57317851  0.87632143  0.15254839     0.40500
H1769       H  0.96029731  0.74443837  0.13037640     0.40200
H1770       H  0.92561603  0.77848768  0.12311041     0.35100
C1771       C  0.97126159  0.68284718  0.20945586    -0.27900
C1772       C  0.99932847  0.71107153  0.20541776    -0.14800
C1773       C  0.52587827  0.70319384  0.16351860     0.35900
C1774       C  0.52847960  0.66654744  0.13771062    -0.26100
C1775       C  0.00539323  0.63620677  0.15320036    -0.15400
C1776       C  0.97561522  0.64545950  0.18776507     0.37000
N1777       N  0.94817282  0.61784859  0.20012393    -0.89600
H1778       H  0.94444087  0.68906971  0.22841788     0.18100
H1779       H  0.54843189  0.66208312  0.10603942     0.18100
N1780       N  0.54907303  0.73328062  0.14538683    -0.88600
H1781       H  0.96250400  0.59392875  0.21796374     0.35400
H1782       H  0.93603894  0.60835820  0.16562171     0.40500
H1783       H  0.53143073  0.75270867  0.12382534     0.40200
H1784       H  0.56881766  0.72205789  0.11822572     0.35100
C1785       C  0.64846988  0.85285239  0.99393342    -0.26700
C1786       C  0.60891023  0.85285715  0.99433736    -0.14800
C1787       C  0.59149978  0.82805378  0.02933035     0.35900
C1788       C  0.61093395  0.81738385  0.07469991    -0.26100
C1789       C  0.64960396  0.82453384  0.08017918    -0.15400
C1790       C  0.66924106  0.83478833  0.03450152     0.37000
N1791       N  0.70957453  0.82704485  0.02969586    -0.89600
H1792       H  0.66278938  0.86841907  0.96400497     0.18100
H1793       H  0.59490331  0.80496517  0.10527271     0.18100
N1794       N  0.55335842  0.81657869  0.02125290    -0.88600
H1795       H  0.71889967  0.83603871  0.99342810     0.35400
H1796       H  0.71477014  0.79684799  0.03111605     0.40500
H1797       H  0.53732573  0.82441267  0.05399515     0.40200
H1798       H  0.55450950  0.78622074  0.01885584     0.35100
C1799       C  0.85460326  0.85963914  0.02359180    -0.26700
C1800       C  0.87919148  0.88587134  0.04499035    -0.14800
C1801       C  0.88075131  0.89082680  0.09942073     0.35900
C1802       C  0.85445944  0.87368949  0.13095405    -0.26100
C1803       C  0.82867346  0.84907216  0.10963875    -0.15400
C1804       C  0.83026378  0.84005021  0.05589613     0.37000
N1805       N  0.80821283  0.81054809  0.03368517    -0.89600
H1806       H  0.85457246  0.85416324  0.98214820     0.18100
H1807       H  0.85475156  0.87892879  0.17247214     0.18100
N1808       N  0.90919119  0.91300037  0.12326044    -0.88600
H1809       H  0.77967111  0.81792635  0.04121934     0.35400
H1810       H  0.81558875  0.78430833  0.05252657     0.40500
H1811       H  0.92497769  0.89437073  0.14810921     0.40200
H1812       H  0.89529478  0.93282336  0.14824298     0.35100
C1813       C  0.87841833  0.61554334  0.09087553    -0.26700
C1814       C  0.88917056  0.63183261  0.04367552    -0.14800
C1815       C  0.88606292  0.67226106  0.03669417     0.35900
C1816       C  0.86693769  0.69524706  0.07413833    -0.26100
C1817       C  0.85283522  0.67793399  0.11889117    -0.15400
C1818       C  0.86122619  0.63862861  0.12922338     0.37000
N1819       N  0.84794277  0.62164584  0.17595162    -0.89600
H1820       H  0.88340996  0.58473831  0.09816768     0.18100
H1821       H  0.86066354  0.72590992  0.06660942     0.18100
N1822       N  0.90112280  0.68960770  0.99134645    -0.88600
H1823       H  0.82925904  0.60035069  0.16570485     0.35400
H1824       H  0.87127005  0.60809502  0.19533211     0.40500
H1825       H  0.92084978  0.70937987  0.00345547     0.40200
H1826       H  0.87880150  0.70520664  0.97221098     0.35100
C1827       C  0.63291084  0.64408215  0.01625666    -0.26700
C1828       C  0.61757685  0.61231604  0.04033741    -0.14800
C1829       C  0.61976373  0.60849077  0.09472752     0.35900
C1830       C  0.64082078  0.63383046  0.12369698    -0.26100
C1831       C  0.65811493  0.66407050  0.09948758    -0.15400
C1832       C  0.65306044  0.67045357  0.04534772     0.37000
N1833       N  0.66851152  0.70255540  0.01863748    -0.89600
H1834       H  0.62912084  0.64843279  0.97484127     0.18100
H1835       H  0.64388687  0.62974026  0.16527652     0.18100
N1836       N  0.59917262  0.58008175  0.12119471    -0.88600
H1837       H  0.64554450  0.71994001  0.00387346     0.35400
H1838       H  0.68321408  0.72025104  0.04370262     0.40500
H1839       H  0.57968034  0.59492700  0.14566375     0.40200
H1840       H  0.61851872  0.56496144  0.14567083     0.35100
C1841       C  0.83309871  0.47497205  0.84065383    -0.26700
C1842       C  0.86176863  0.49891363  0.82399866    -0.14800
C1843       C  0.85415335  0.01755116  0.77122054     0.35900
C1844       C  0.81794104  0.01781103  0.74715816    -0.26100
C1845       C  0.78860532  0.49853354  0.77186460    -0.15400
C1846       C  0.79760186  0.47381241  0.81486500     0.37000
N1847       N  0.77107117  0.44709544  0.83290589    -0.89600
H1848       H  0.83821931  0.45680152  0.87458642     0.18100
H1849       H  0.81496409  0.03285130  0.71043600     0.18100
N1850       N  0.88325640  0.03860319  0.74733553    -0.88600
H1851       H  0.76584428  0.45255368  0.87221744     0.35400
H1852       H  0.78415206  0.41908913  0.83012774     0.40500
H1853       H  0.90698564  0.52937138  0.74997667     0.40200
H1854       H  0.88868854  0.56599673  0.78837170     0.35100
C1855       C  0.67454575  0.99283600  0.74192766    -0.26700
C1856       C  0.71109758  0.50060858  0.77144676    -0.14800
C1857       C  0.70659197  0.51444326  0.82308435     0.35900
C1858       C  0.67062568  0.51464431  0.84732392    -0.26100
C1859       C  0.63738271  0.50279792  0.82175855    -0.15400
C1860       C  0.63875069  0.99239835  0.76650086     0.37000
N1861       N  0.60692383  0.98007661  0.73708241    -0.89600
H1862       H  0.67595648  0.98394387  0.70171354     0.18100
H1863       H  0.66888040  0.52456437  0.88724242     0.18100
N1864       N  0.73742618  0.53057936  0.85073538    -0.88600
H1865       H  0.58574967  0.00272483  0.73668060     0.35400
H1866       H  0.59630138  0.95598043  0.75544137     0.40500
H1867       H  0.72944554  0.55962666  0.85925425     0.40200
H1868       H  0.74102822  0.51603797  0.88613383     0.35100
C1869       C  0.50896211  0.63941662  0.76813985    -0.26700
C1870       C  0.99869778  0.64197029  0.82572901    -0.14800
C1871       C  0.99126787  0.67974506  0.84753940     0.35900
C1872       C  0.99378174  0.71347059  0.81713453    -0.26100
C1873       C  0.00352001  0.71176565  0.76413673    -0.15400
C1874       C  0.51056121  0.67364518  0.73792014     0.37000
N1875       N  0.51962485  0.66951755  0.68405538    -0.89600
H1876       H  0.51563217  0.61141643  0.75005239     0.18100
H1877       H  0.98607643  0.74105089  0.83544941     0.18100
N1878       N  0.97998696  0.68446174  0.90068758    -0.88600
H1879       H  0.49940658  0.65244747  0.66673911     0.35400
H1880       H  0.54628595  0.65451213  0.68098663     0.40500
H1881       H  0.95333958  0.69969017  0.90156966     0.40200
H1882       H  0.99966092  0.70136862  0.91949424     0.35100
C1883       C  0.97352051  0.85749704  0.77635286    -0.26700
C1884       C  0.00114026  0.86259988  0.81453695    -0.14800
C1885       C  0.52651936  0.82982790  0.82538476     0.35900
C1886       C  0.52551647  0.79492277  0.79684853    -0.26100
C1887       C  0.99770487  0.78916879  0.76033424    -0.15400
C1888       C  0.97140848  0.82191360  0.74912043     0.37000
N1889       N  0.94308770  0.82066877  0.70903320    -0.89600
H1890       H  0.95263385  0.88117618  0.76819121     0.18100
H1891       H  0.54657405  0.77161824  0.80585428     0.18100
N1892       N  0.55441452  0.83291895  0.86574311    -0.88600
H1893       H  0.94723148  0.84296164  0.68256305     0.35400
H1894       H  0.91631916  0.82631666  0.72590677     0.40500
H1895       H  0.58144204  0.82794218  0.84940896     0.40200
H1896       H  0.55059736  0.81094403  0.89282279     0.35100
C1897       C  0.92575340  0.73258102  0.61822696    -0.26700
C1898       C  0.89082596  0.73424511  0.64572291    -0.14800
C1899       C  0.89322726  0.73734277  0.70032643     0.35900
C1900       C  0.92889418  0.74178934  0.72458353    -0.26100
C1901       C  0.96377588  0.74322112  0.69662036    -0.15400
C1902       C  0.96155790  0.73565808  0.64257295     0.37000
N1903       N  0.99512099  0.72867982  0.61187764    -0.89600
H1904       H  0.92580724  0.72838915  0.57655275     0.18100
H1905       H  0.92921228  0.74529571  0.76635697     0.18100
N1906       N  0.86036321  0.73530688  0.73256891    -0.88600
H1907       H  0.99353986  0.74781991  0.58043276     0.35400
H1908       H  0.99476448  0.70058333  0.59645706     0.40500
H1909       H  0.84763703  0.70924147  0.72456692     0.40200
H1910       H  0.84109354  0.75865671  0.72373086     0.35100
C1911       C  0.57503642  0.73230039  0.71212590    -0.26700
C1912       C  0.54073546  0.75310504  0.69555065    -0.14800
C1913       C  0.54578498  0.78296334  0.65867035     0.35900
C1914       C  0.58170232  0.78797563  0.63584689    -0.26100
C1915       C  0.61498454  0.76552403  0.65017508    -0.15400
C1916       C  0.61143733  0.73811985  0.69035096     0.37000
N1917       N  0.64459727  0.71564578  0.70864664    -0.89600
H1918       H  0.57427339  0.71201451  0.74390436     0.18100
H1919       H  0.58341197  0.81012961  0.60629725     0.18100
N1920       N  0.51456678  0.80940227  0.64484096    -0.88600
H1921       H  0.63717104  0.69567718  0.73678295     0.35400
H1922       H  0.66225096  0.73481335  0.72724409     0.40500
H1923       H  0.51068098  0.80801236  0.60487529     0.40200
H1924       H  0.52211114  0.83755248  0.65392544     0.35100
C1925       C  0.74912081  0.57285542  0.73289717    -0.26700
C1926       C  0.74498027  0.53659254  0.70703608    -0.14800
C1927       C  0.73388293  0.53897212  0.65416084     0.35900
C1928       C  0.73121478  0.57526317  0.62861316    -0.26100
C1929       C  0.73787344  0.61102031  0.65375333    -0.15400
C1930       C  0.74627391  0.60937169  0.70728352     0.37000
N1931       N  0.75222897  0.64445611  0.73572723    -0.89600
H1932       H  0.75603764  0.57268649  0.77375977     0.18100
H1933       H  0.72352974  0.57495290  0.58785804     0.18100
N1934       N  0.72339565  0.50532137  0.62600644    -0.88600
H1935       H  0.75922191  0.63816113  0.77443393     0.35400
H1936       H  0.72626366  0.66095694  0.73626539     0.40500
H1937       H  0.74077520  0.50225335  0.59325835     0.40200
H1938       H  0.69522353  0.51018411  0.61316943     0.35100
C1939       C  0.74252726  0.88881047  0.69246922    -0.26700
C1940       C  0.76647853  0.88705285  0.64932975    -0.14800
C1941       C  0.78565846  0.92089204  0.63674791     0.35900
C1942       C  0.77863127  0.95563946  0.66556001    -0.26100
C1943       C  0.75204854  0.95887204  0.70658489    -0.15400
C1944       C  0.73567291  0.92325091  0.72158682     0.37000
N1945       N  0.71243162  0.92065164  0.76680858    -0.89600
H1946       H  0.72814946  0.86314010  0.70355549     0.18100
H1947       H  0.79363383  0.98095252  0.65495952     0.18100
N1948       N  0.81239556  0.92004908  0.59465678    -0.88600
H1949       H  0.72446908  0.89856764  0.79058163     0.35400
H1950       H  0.68567822  0.91200082  0.75500782     0.40500
H1951       H  0.83518175  0.90054556  0.60472632     0.40200
H1952       H  0.82375169  0.94720107  0.58997929     0.35100
C1953       C  0.86147735  0.52213085  0.49227840    -0.26700
C1954       C  0.88964778  0.52550787  0.53061597    -0.14800
C1955       C  0.88339131  0.55249846  0.57139905     0.35900
C1956       C  0.85523248  0.58248247  0.56483208    -0.26100
C1957       C  0.83311387  0.58424968  0.51933259    -0.15400
C1958       C  0.83330381  0.55212815  0.48574062     0.37000
N1959       N  0.80778868  0.55193334  0.44219273    -0.89600
H1960       H  0.86539936  0.50033436  0.46202160     0.18100
H1961       H  0.85339328  0.60638985  0.59234819     0.18100
N1962       N  0.90892345  0.55377560  0.61500768    -0.88600
H1963       H  0.79232493  0.52703966  0.44495102     0.35400
H1964       H  0.82397330  0.54971667  0.40827272     0.40500
H1965       H  0.92833228  0.52955574  0.61455809     0.40200
H1966       H  0.89259968  0.55108882  0.64844455     0.35100
C1967       C  0.59059043  0.63786359  0.52112195    -0.26700
C1968       C  0.59499032  0.67261439  0.49467532    -0.14800
C1969       C  0.56768906  0.68609398  0.45724162     0.35900
C1970       C  0.54129577  0.66058179  0.43919828    -0.26100
C1971       C  0.54124383  0.62344741  0.46007474    -0.15400
C1972       C  0.56310930  0.61320637  0.50437513     0.37000
N1973       N  0.55997081  0.57618003  0.52870434    -0.89600
H1974       H  0.61057268  0.62835903  0.55140660     0.18100
H1975       H  0.52322129  0.66825356  0.40607050     0.18100
N1976       N  0.56935796  0.72375802  0.43393225    -0.88600
H1977       H  0.55341913  0.58110844  0.56779658     0.35400
H1978       H  0.58653394  0.56084521  0.52690680     0.40500
H1979       H  0.56361044  0.74441314  0.46303757     0.40200
H1980       H  0.54752354  0.72816051  0.40645712     0.35100
C1981       C  0.65229061  0.89147727  0.38183768    -0.26700
C1982       C  0.66524180  0.90150288  0.43120493    -0.14800
C1983       C  0.65684025  0.93878877  0.45112233     0.35900
C1984       C  0.63231833  0.96458801  0.42293869    -0.26100
C1985       C  0.61655398  0.95344168  0.37484796    -0.15400
C1986       C  0.62831306  0.91702607  0.35331935     0.37000
N1987       N  0.61371935  0.90472489  0.30422802    -0.89600
H1988       H  0.65887326  0.86246370  0.36680404     0.18100
H1989       H  0.62280615  0.99170139  0.44136955     0.18100
N1990       N  0.67056264  0.94934778  0.50135186    -0.88600
H1991       H  0.59964703  0.87919374  0.31012625     0.35400
H1992       H  0.63665034  0.89768023  0.27970379     0.40500
H1993       H  0.64699501  0.95666817  0.52477275     0.40200
H1994       H  0.68596091  0.97419818  0.49715973     0.35100
C1995       C  0.93976995  0.81156330  0.46870744    -0.26700
C1996       C  0.90339323  0.82331768  0.44962002    -0.14800
C1997       C  0.89949781  0.85321879  0.41254693     0.35900
C1998       C  0.93042303  0.87486145  0.40122540    -0.26100
C1999       C  0.96500472  0.86742491  0.42715708    -0.15400
C2000       C  0.97080762  0.83394341  0.45779062     0.37000
N2001       N  0.00706820  0.82525957  0.48189248    -0.89600
H2002       H  0.94344926  0.78732775  0.49537763     0.18100
H2003       H  0.92589855  0.90065986  0.37739324     0.18100
N2004       N  0.86340297  0.86385336  0.38933152    -0.88600
H2005       H  0.01624777  0.79698317  0.47123175     0.35400
H2006       H  0.00318830  0.82584446  0.52200948     0.40500
H2007       H  0.86640398  0.86238398  0.34900101     0.40200
H2008       H  0.85700058  0.89282452  0.39975472     0.35100
C2009       C  0.57931650  0.78055586  0.33776972    -0.26700
C2010       C  0.61061718  0.75439776  0.32719223    -0.14800
C2011       C  0.60321412  0.72180497  0.29584062     0.35900
C2012       C  0.56698755  0.71881192  0.27168081    -0.26100
C2013       C  0.53612866  0.74732222  0.27799254    -0.15400
C2014       C  0.54264968  0.77643221  0.31654025     0.37000
N2015       N  0.51315546  0.80344319  0.33456484    -0.89600
H2016       H  0.58296342  0.80426516  0.36477435     0.18100
H2017       H  0.56368101  0.69332223  0.24810877     0.18100
N2018       N  0.63130461  0.69025520  0.28959932    -0.88600
H2019       H  0.49213725  0.78834866  0.35283975     0.35400
H2020       H  0.50169147  0.81936353  0.30342006     0.40500
H2021       H  0.63866266  0.67923776  0.32633350     0.40200
H2022       H  0.65558092  0.70097992  0.27296554     0.35100
C2023       C  0.89391398  0.76995474  0.29889976    -0.26700
C2024       C  0.88835897  0.73489957  0.32517683    -0.14800
C2025       C  0.92108424  0.70932908  0.33194709     0.35900
C2026       C  0.95687352  0.71788325  0.31105249    -0.26100
C2027       C  0.96116961  0.74959412  0.27709098    -0.15400
C2028       C  0.92979689  0.77818190  0.27683734     0.37000
N2029       N  0.93534011  0.81734357  0.26147012    -0.89600
H2030       H  0.87090869  0.79235265  0.29828880     0.18100
H2031       H  0.98070154  0.69678205  0.31654782     0.18100
N2032       N  0.91819111  0.67386528  0.35988580    -0.88600
H2033       H  0.93108857  0.83520144  0.29404259     0.35400
H2034       H  0.91462719  0.82633142  0.23436491     0.40500
H2035       H  0.93754235  0.67447409  0.39061927     0.40200
H2036       H  0.92684654  0.65076004  0.33540830     0.35100
C2037       C  0.73483604  0.92291299  0.24755281    -0.26700
C2038       C  0.75582070  0.95532332  0.26325438    -0.14800
C2039       C  0.78336673  0.94706478  0.30296516     0.35900
C2040       C  0.78462635  0.91155326  0.33000173    -0.26100
C2041       C  0.76146115  0.88105835  0.31733046    -0.15400
C2042       C  0.73612984  0.88707283  0.27514772     0.37000
N2043       N  0.71060540  0.85759285  0.26150596    -0.89600
H2044       H  0.71656496  0.92513754  0.21375239     0.18100
H2045       H  0.80346270  0.90855203  0.36284714     0.18100
N2046       N  0.81035816  0.97459565  0.31722013    -0.88600
H2047       H  0.69114173  0.86824322  0.23348265     0.35400
H2048       H  0.69414779  0.85216681  0.29392464     0.40500
H2049       H  0.83761629  0.96182348  0.31024295     0.40200
H2050       H  0.80849901  0.97992887  0.35707356     0.35100
C2051       C  0.73489212  0.56979633  0.35261661    -0.26700
C2052       C  0.73693799  0.60608240  0.32738768    -0.14800
C2053       C  0.73893636  0.60546293  0.27253176     0.35900
C2054       C  0.74090876  0.56977261  0.24563952    -0.26100
C2055       C  0.74255690  0.53313500  0.27112759    -0.15400
C2056       C  0.73680692  0.53395992  0.32571555     0.37000
N2057       N  0.73058765  0.49937057  0.35442316    -0.89600
H2058       H  0.73156966  0.56880183  0.39434176     0.18100
H2059       H  0.74330076  0.57065378  0.20374398     0.18100
N2060       N  0.73924799  0.64032313  0.24253660    -0.88600
H2061       H  0.70363244  0.50269374  0.37141018     0.35400
H2062       H  0.75033545  0.49705898  0.38486000     0.40500
H2063       H  0.76356791  0.65488532  0.25221513     0.40200
H2064       H  0.71483961  0.65793192  0.25118704     0.35100
loop_ 
_geom_bond_atom_site_label_1 
_geom_bond_atom_site_label_2 
_geom_bond_distance 
_geom_bond_site_symmetry_2 
_ccdc_geom_bond_type 
O1           C12   1.306       .  A
O1          Eu37   2.542       .  S
O2           C13   1.311       .  A
O2          Eu36   2.563       .  S
O3           C14   1.280       .  A
O3           Eu9   2.415       .  S
O4           C15   1.291       .  A
O4           Eu9   2.456       .  S
O5           C15   1.274       .  A
O5          Eu39   2.378       .  S
O6           C14   1.296       .  A
O6          Eu38   2.489       .  S
O7           C13   1.283       .  A
O7           Eu9   2.405       .  S
O8           C12   1.289       .  A
O8           Eu9   2.444       .  S
Eu9          O19   2.319       .  S
Eu9          O11   2.364       .  S
Eu9          O10   2.339       .  S
Eu9          O17   2.356       .  S
O10         Eu39   2.331       .  S
O10         Eu36   2.367       .  S
O11         Eu37   2.392       .  S
O11         Eu38   2.345       .  S
C12         C504   1.521       .  S
C13         C381   1.513       .  S
C14         C409   1.468       .  S
C15         C420   1.455       .  S
H16          O17   0.965       .  S
O17         Eu38   2.328       .  S
O17         Eu36   2.379       .  S
H18          O19   0.964       .  S
O19         Eu37   2.381       .  S
O19         Eu39   2.361       .  S
O20          C43   1.311       .  A
O20         Eu36   2.560       .  S
O21          C44   1.307       .  A
O21         Eu37   2.543       .  S
O22          C45   1.284       .  A
O22         Eu38   2.414       .  S
O23          C46   1.291       .  A
O23         Eu39   2.457       .  S
O24          C47   1.288       .  A
O24         Eu39   2.440       .  S
O25          C48   1.291       .  A
O25         Eu38   2.453       .  S
O26          C49   1.294       .  A
O26         Eu40   2.465       .  S
O27          C50   1.283       .  A
O27         Eu40   2.430       .  S
O28          C49   1.281       .  A
O28         Eu38   2.410       .  S
O29          C50   1.283       .  A
O29         Eu39   2.414       .  S
O30          C45   1.310       .  A
O30         Eu36   2.563       .  S
O31          C48   1.314       .  A
O31         Eu37   2.589       .  S
O32          C47   1.311       .  A
O32         Eu37   2.567       .  S
O33          C46   1.310       .  A
O33         Eu36   2.567       .  S
O34          C43   1.291       .  A
O34         Eu40   2.455       .  S
O35          C44   1.292       .  A
O35         Eu40   2.458       .  S
Eu36         O54   2.394       .  S
Eu36         O42   2.379       .  S
Eu37         O41   2.375       .  S
Eu37         O52   2.360       .  S
Eu38         O52   2.352       .  S
Eu38         O42   2.367       .  S
Eu39         O41   2.332       .  S
Eu39         O54   2.343       .  S
Eu40         O41   2.348       .  S
Eu40         O52   2.335       .  S
Eu40         O54   2.370       .  S
Eu40         O42   2.345       .  S
C43         C392   1.516       .  S
C44         C493   1.513       .  S
C45         C350   1.520       .  S
C46         C367   1.525       .  S
C47         C462   1.512       .  S
C48         C476   1.525       .  S
C49         C448   1.461       .  S
C50         C434   1.448       .  S
H51          O52   0.962       .  S
H53          O54   0.966       .  S
N55          C60   1.343       .  A
N55        C1091   1.342       .  A
N55          H87   1.046       .  S
N56          C64   1.342       .  A
N56         C579   1.351       .  A
N57          C62   1.352       .  A
N57        C1093   1.347       .  A
N57          H88   1.040       .  S
N58          C66   1.344       .  A
N58         C581   1.343       .  A
C59        N1087   1.344       .  A
C59          C67   1.380       .  A
C59          C75   1.392       .  A
C60          C76   1.402       .  A
C60          C68   1.389       .  A
C61        N1089   1.350       .  A
C61          C69   1.377       .  A
C61          C78   1.391   1_655  A
C62          C77   1.421       .  A
C62          C70   1.393       .  A
C63         N572   1.347       .  A
C63          C75   1.399       .  A
C63          C71   1.386       .  A
C64          C78   1.405       .  A
C64          C72   1.388       .  A
C65         N574   1.342       .  A
C65          C73   1.394       .  A
C65          C76   1.413       .  A
C66          C74   1.382       .  A
C66          C77   1.404   1_565  A
C67        C1100   1.377       .  A
C67          H79   1.081       .  S
C68        C1099   1.380       .  A
C68          H80   1.081       .  S
C69        C1102   1.361       .  A
C69          H81   1.079       .  S
C70        C1101   1.359       .  A
C70          H82   1.070       .  S
C71         C588   1.369       .  A
C71          H83   1.079       .  S
C72         C587   1.366       .  A
C72          H84   1.083       .  S
C73         C590   1.373       .  A
C73          H85   1.080       .  S
C74         C589   1.376       .  A
C74          H86   1.083       .  S
C75         C437   1.483       .  S
C76         C451   1.464       .  S
C77         C406   1.482       .  S
C78         C423   1.459       .  S
O89         C100   1.309       .  A
O89        Eu641   2.555       .  S
O90         C101   1.306       .  A
O90        Eu124   2.533       .  S
O91         C102   1.273       .  A
O91       Eu1129   2.373   1_455  S
O92         C103   1.282       .  A
O92         Eu97   2.429   1_554  S
O93         C103   1.286       .  A
O93        Eu127   2.457   1_554  S
O94         C102   1.293       .  A
O94        Eu126   2.473       .  S
O95         C101   1.287       .  A
O95         Eu97   2.438   1_554  S
O96         C100   1.287       .  A
O96         Eu97   2.434       .  S
Eu97       O1123   2.386       .  S
Eu97        O107   2.343       .  S
Eu97         O98   2.321   1_556  S
Eu97       O1131   2.345       .  S
Eu97       O1137   2.360   1_556  S
O98        Eu127   2.320   1_554  S
O98        Eu124   2.360       .  S
O99        Eu126   2.341       .  S
O99       Eu1129   2.347   1_455  S
O99       Eu1673   2.378   1_455  S
C100        C336   1.503       .  S
C101        C213   1.497       .  S
C102        C238   1.462   1_556  S
C103        C252   1.467       .  S
H104        O105   0.967       .  S
O105       Eu126   2.348   1_554  S
O105      Eu1129   2.354   1_454  S
O105      Eu1156   2.388       .  S
H106        O107   0.967       .  S
O107       Eu127   2.360       .  S
O107       Eu641   2.411       .  S
O108        C131   1.312       .  A
O108       Eu640   2.573   1_545  S
O109        C132   1.311       .  A
O109       Eu125   2.568   1_545  S
O110        C133   1.280       .  A
O110       Eu126   2.388   1_554  S
O111        C134   1.285       .  A
O111       Eu127   2.419   1_554  S
O112        C135   1.289   1_545  A
O112       Eu643   2.436       .  S
O113        C136   1.285   1_565  A
O113       Eu642   2.410       .  S
O114        C137   1.279       .  A
O114      Eu1160   2.400   1_554  S
O115        C138   1.278   1_556  A
O115       Eu128   2.401       .  S
O116        C137   1.291       .  A
O116       Eu642   2.482   1_544  S
O117        C138   1.286   1_556  A
O117       Eu643   2.427       .  S
O118        C133   1.320       .  A
O118      Eu1156   2.608       .  S
O119        C136   1.313       .  A
O119      Eu1157   2.581   1_455  S
O120        C135   1.310       .  A
O120       Eu125   2.557       .  S
O121        C134   1.321       .  A
O121       Eu124   2.616       .  S
O122        C131   1.286       .  A
O122       Eu128   2.436   1_554  S
O123        C132   1.282       .  A
O123       Eu128   2.418       .  S
Eu124       O624   2.554       .  S
Eu124      O1150   2.606       .  S
Eu124      O1137   2.392       .  S
Eu124       O658   2.368       .  S
Eu124      O1678   2.355       .  S
Eu125       O605   2.545       .  S
Eu125      O1151   2.575       .  S
Eu125       O129   2.385   1_565  S
Eu125      O1647   2.379       .  S
Eu125       O623   2.408       .  S
Eu125      O1172   2.389   1_565  S
Eu126       O629   2.408       .  S
Eu126       O632   2.478   1_556  S
Eu126       O656   2.358       .  S
Eu126       O646   2.330   1_556  S
Eu127       O628   2.432       .  S
Eu127       O633   2.426       .  S
Eu127       O645   2.359       .  S
Eu127       O658   2.353   1_556  S
Eu128      O1146   2.404       .  S
Eu128       O129   2.349       .  S
Eu128       O142   2.342   1_556  S
Eu128      O1172   2.340       .  S
Eu128      O1162   2.334   1_556  S
O129       Eu643   2.358       .  S
O130      Eu1672   2.349   1_445  S
O130       Eu642   2.333   1_544  S
O130      Eu1160   2.333   1_554  S
C131        C227   1.515       .  S
C132        C322   1.520       .  S
C133        C182   1.520       .  S
C134        C196   1.528       .  S
C135        C294   1.505       .  S
C136        C311   1.520       .  S
C137        C280   1.460       .  S
C138        C266   1.447       .  S
H139        O140   0.966       .  S
O140      Eu1157   2.389   1_455  S
O140       Eu642   2.365   1_545  S
O140      Eu1160   2.346       .  S
H141        O142   0.964       .  S
O142       Eu640   2.371   1_545  S
O142       Eu643   2.355   1_554  S
N143        C148   1.346       .  A
N143        C147   1.348       .  A
N143        H175   1.041       .  S
N144        C151   1.336       .  A
N144        C152   1.339       .  A
N145        C150   1.337       .  A
N145        C149   1.347       .  A
N145        H176   1.044       .  S
N146        C153   1.344       .  A
N146        C154   1.346       .  A
C147        C155   1.387       .  A
C147        C163   1.409       .  A
C148        C164   1.405       .  A
C148        C156   1.386       .  A
C149        C157   1.381       .  A
C149        C166   1.391       .  A
C150        C165   1.403       .  A
C150        C158   1.394       .  A
C151        C163   1.391       .  A
C151        C159   1.385       .  A
C152        C166   1.385       .  A
C152        C160   1.372       .  A
C153        C161   1.375       .  A
C153        C164   1.398       .  A
C154        C162   1.380       .  A
C154        C165   1.396       .  A
C155        C156   1.375       .  A
C155        H167   1.083       .  S
C156        H168   1.079       .  S
C157        C158   1.365       .  A
C157        H169   1.082       .  S
C158        H170   1.080       .  S
C159        C160   1.376       .  A
C159        H171   1.079       .  S
C160        H172   1.078       .  S
C161        C162   1.368       .  A
C161        H173   1.070       .  S
C162        H174   1.082       .  S
C163        C241   1.499       .  S
C164        C255   1.477       .  S
C165        C269   1.459       .  S
C166        C283   1.466       .  S
C177        C465   1.604       .  S
C177       C1242   1.597       .  S
C177       C1256   1.621       .  S
C177       C1511   1.605   1_455  S
C178        C185   1.597       .  S
C178        C199   1.606       .  S
C178        C490   1.596       .  S
C178       C1023   1.570       .  S
C179        C325   1.586       .  S
C179        C339   1.597       .  S
C179        C353   1.578       .  S
C179       C1396   1.590       .  S
C180        C395   1.595       .  S
C180        C813   1.591       .  S
C180        C824   1.578       .  S
C180        C894   1.583       .  S
C181        C182   1.392       .  A
C181        C186   1.414       .  A
C181        H188   1.084       .  S
C182        C699   1.431       .  A
C183        C184   1.418       .  A
C183        C698   1.431   1_545  A
C183        N190   1.433       .  S
C184        C701   1.410   1_545  A
C184        H189   1.080       .  S
C185        C186   1.435       .  A
C185        C700   1.408       .  A
C186        N187   1.423       .  S
N187        H191   1.042       .  S
N187        H192   1.042       .  S
N190        H193   1.046   1_545  S
N190        H194   1.046       .  S
C195        C196   1.398       .  A
C195        C716   1.426       .  A
C195        H718   1.083       .  S
C196        C197   1.425       .  A
C197        C198   1.413       .  A
C197        N204   1.431       .  S
C198        C199   1.405       .  A
C198        H203   1.080       .  S
C199        C716   1.452       .  A
C200        C711   1.425       .  A
C200        C715   1.451       .  A
C200        N201   1.434       .  S
N201        H206   1.046       .  S
N201        H721   1.045       .  S
H202        C711   1.083       .  S
N204        H207   1.045       .  S
N204        H208   1.043       .  S
H205        N717   1.045       .  S
C209        C214   1.405       .  A
C209       C1242   1.432       .  A
C209        H216   1.072       .  S
C210        C211   1.430       .  A
C210       C1241   1.429       .  A
C210       C1209   1.595       .  S
C211        C212   1.419       .  A
C211        N218   1.436       .  S
C212        C213   1.408       .  A
C212        H217   1.083       .  S
C213       C1246   1.401       .  A
C214       C1245   1.403       .  A
C214        N215   1.434       .  S
N215        H219   1.044       .  S
N215        H220   1.046       .  S
N218        H221   1.043       .  S
N218        H222   1.046       .  S
C223        C224   1.433       .  A
C223        C228   1.410       .  A
C223        H230   1.072       .  S
C224       C1257   1.433       .  A
C224       C1209   1.620       .  S
C225        C226   1.427       .  A
C225       C1256   1.435       .  A
C225        N232   1.436       .  S
C226       C1259   1.411       .  A
C226        H231   1.083       .  S
C227        C228   1.404       .  A
C227       C1258   1.412       .  A
C228        N229   1.432       .  S
N229        H233   1.045       .  S
N229        H234   1.043       .  S
N232        H235   1.043       .  S
N232        H236   1.046       .  S
C237        C238   1.392       .  A
C237        C242   1.399       .  A
C237        H244   1.084   1_554  S
C238        C239   1.410       .  A
C239        C240   1.390       .  A
C239        N246   1.432       .  S
C240        C241   1.401       .  A
C240        H245   1.076       .  S
C241        C242   1.424       .  A
C242        N243   1.433       .  S
N243        H247   1.046       .  S
N243        H248   1.046       .  S
N246        H249   1.041       .  S
N246        H250   1.045       .  S
C251        C252   1.395       .  A
C251        C256   1.398       .  A
C251        H258   1.084   1_554  S
C252        C253   1.417       .  A
C253        C254   1.396       .  A
C253        N260   1.428       .  S
C254        C255   1.388       .  A
C254        H259   1.084       .  S
C255        C256   1.418       .  A
C256        N257   1.430       .  S
N257        H261   1.040       .  S
N257        H262   1.045       .  S
N260        H263   1.042       .  S
N260        H264   1.040       .  S
C265        C266   1.404       .  A
C265        C270   1.385       .  A
C265        H272   1.080       .  S
C266        C267   1.403       .  A
C267        C268   1.396       .  A
C267        N274   1.432   1_554  S
C268        C269   1.404       .  A
C268        H273   1.084       .  S
C269        C270   1.396       .  A
C270        N271   1.432       .  S
N271        H275   1.046       .  S
N271        H276   1.043       .  S
N274        H277   1.046   1_556  S
N274        H278   1.046       .  S
C279        C280   1.397       .  A
C279        C284   1.398       .  A
C279        H286   1.084   1_554  S
C280        C281   1.410       .  A
C281        C282   1.394       .  A
C281        N288   1.429       .  S
C282        C283   1.391       .  A
C282        H287   1.085       .  S
C283        C284   1.420       .  A
C284        N285   1.440       .  S
N285        H289   1.046       .  S
N285        H290   1.043       .  S
N288        H291   1.044       .  S
N288        H292   1.043       .  S
C293        C294   1.411       .  A
C293        C298   1.415       .  A
C293        H300   1.084       .  S
C294        C811   1.414   1_565  A
C295        C296   1.413       .  A
C295        C810   1.415       .  A
C295        N302   1.439       .  S
C296        C813   1.429       .  A
C296        H301   1.080       .  S
C297        C298   1.421       .  A
C297        C812   1.427   1_565  A
C297        C696   1.591   1_565  S
C298        N299   1.431       .  S
N299        H303   1.045       .  S
N299        H304   1.046       .  S
N302        H821   1.041       .  S
N302        H822   1.046       .  S
H305        N818   1.040       .  S
H306        N818   1.046       .  S
C307        C312   1.413       .  A
C307        C824   1.427       .  A
C307        H314   1.082       .  S
C308        C309   1.415       .  A
C308        C823   1.428       .  A
C308        C696   1.577       .  S
C309        C310   1.411       .  A
C309        N316   1.431       .  S
C310        C311   1.419       .  A
C310        H315   1.083       .  S
C311        C828   1.412       .  A
C312        C827   1.411       .  A
C312        N313   1.431       .  S
N313        H317   1.045       .  S
N313        H318   1.045       .  S
N316        H319   1.046       .  S
N316        H320   1.045       .  S
C321        C326   1.419       .  A
C321       C1354   1.402   1_455  A
C321        H328   1.083       .  S
C322        C323   1.430       .  A
C322       C1353   1.399       .  A
C323        C324   1.416       .  A
C323        N330   1.439       .  S
C324        C325   1.408       .  A
C324        H329   1.080       .  S
C325       C1358   1.435       .  A
C326       C1357   1.433       .  A
C326        N327   1.431       .  S
N327        H331   1.046   1_455  S
N327        H332   1.045       .  S
N330        H333   1.046       .  S
N330        H334   1.046       .  S
C335        C336   1.395       .  A
C335        C340   1.417       .  A
C335        H342   1.084       .  S
C336       C1369   1.413       .  A
C337        C338   1.411       .  A
C337       C1368   1.412       .  A
C337        N344   1.433       .  S
C338       C1371   1.414   1_455  A
C338        H343   1.083       .  S
C339        C340   1.446       .  A
C339       C1370   1.417       .  A
C340        N341   1.432       .  S
N341        H345   1.046       .  S
N341        H346   1.046       .  S
N344        H347   1.045       .  S
N344        H348   1.046       .  S
C349        C350   1.420       .  A
C349        C354   1.411       .  A
C349        H356   1.083       .  S
C350        C351   1.412       .  A
C351        C352   1.411       .  A
C351        N358   1.431       .  S
C352        C353   1.428       .  A
C352        H357   1.082       .  S
C353        C354   1.419       .  A
C354        N355   1.432       .  S
N355        H359   1.045       .  S
N355        H360   1.046       .  S
N358        H361   1.046       .  S
N358        H362   1.045       .  S
C363        C364   1.429       .  A
C363        C368   1.426       .  A
C363        H370   1.079       .  S
C364        C365   1.426       .  A
C364       C1211   1.604       .  S
C365        C366   1.417       .  A
C365        N372   1.426       .  S
C366        C367   1.408       .  A
C366        H371   1.084       .  S
C367        C368   1.412       .  A
C368        N369   1.431       .  S
N369        H373   1.046       .  S
N369        H374   1.046       .  S
N372        H375   1.039       .  S
N372        H376   1.046       .  S
C377        C378   1.426       .  A
C377        C382   1.415       .  A
C377        H384   1.081       .  S
C378        C379   1.416       .  A
C378        C696   1.576       .  S
C379        C380   1.407       .  A
C379        N386   1.432       .  S
C380        C381   1.419       .  A
C380        H385   1.083       .  S
C381        C382   1.407       .  A
C382        N383   1.437       .  S
N383        H387   1.046       .  S
N383        H388   1.046       .  S
N386        H389   1.046       .  S
N386        H390   1.046       .  S
C391        C392   1.398       .  A
C391        C396   1.416       .  A
C391        H398   1.084       .  S
C392        C393   1.419       .  A
C393        C394   1.418       .  A
C393        N400   1.432       .  S
C394        C395   1.417       .  A
C394        H399   1.083       .  S
C395        C396   1.443       .  A
C396        N397   1.432       .  S
N397        H401   1.046       .  S
N397        H402   1.046       .  S
N400        H403   1.046       .  S
N400        H404   1.046       .  S
C405        C406   1.404       .  A
C405        C410   1.401       .  A
C405        H412   1.084   1_545  S
C406        C407   1.413       .  A
C407        C408   1.402       .  A
C407        N414   1.436       .  S
C408        C409   1.405       .  A
C408        H413   1.084       .  S
C409        C410   1.405       .  A
C410        N411   1.432       .  S
N411        H415   1.045       .  S
N411        H416   1.046       .  S
N414        H417   1.045       .  S
N414        H418   1.045       .  S
C419        C420   1.396       .  A
C419        C424   1.387       .  A
C419        H426   1.084       .  S
C420        C421   1.418       .  A
C421        C422   1.396       .  A
C421        N428   1.436       .  S
C422        C423   1.391       .  A
C422        H427   1.084       .  S
C423        C424   1.406       .  A
C424        N425   1.433       .  S
N425        H429   1.045       .  S
N425        H430   1.046       .  S
N428        H431   1.045       .  S
N428        H432   1.045       .  S
C433        C434   1.397       .  A
C433        C438   1.390       .  A
C433        H440   1.083       .  S
C434        C435   1.395       .  A
C435        C436   1.398       .  A
C435        N442   1.432       .  S
C436        C437   1.415       .  A
C436        H441   1.082       .  S
C437        C438   1.409       .  A
C438        N439   1.433       .  S
N439        H443   1.046       .  S
N439        H444   1.043       .  S
N442        H445   1.046       .  S
N442        H446   1.046       .  S
C447        C448   1.404       .  A
C447        C452   1.403       .  A
C447        H454   1.084       .  S
C448        C449   1.405       .  A
C449        C450   1.386       .  A
C449        N456   1.426       .  S
C450        C451   1.393       .  A
C450        H455   1.085       .  S
C451        C452   1.403       .  A
C452        N453   1.429       .  S
N453        H457   1.045       .  S
N453        H458   1.042       .  S
N456        H459   1.046       .  S
N456        H460   1.044       .  S
C461        C462   1.407       .  A
C461        C466   1.411       .  A
C461        H468   1.085       .  S
C462        C463   1.413       .  A
C463        C464   1.418       .  A
C463        N470   1.433       .  S
C464        C465   1.425       .  A
C464        H469   1.077       .  S
C465        C466   1.439       .  A
C466        N467   1.430       .  S
N467        H471   1.044   1_455  S
N467        H472   1.039       .  S
N470        H473   1.046       .  S
N470        H474   1.044       .  S
C475        C476   1.410       .  A
C475        C480   1.429       .  A
C475        H482   1.083       .  S
C476        C477   1.415       .  A
C477        C478   1.417       .  A
C477        N484   1.429       .  S
C478        C479   1.414       .  A
C478        H483   1.084       .  S
C479        C480   1.437       .  A
C479       C1209   1.603       .  S
C480        N481   1.434       .  S
N481        H485   1.046       .  S
N481        H486   1.040       .  S
N484        H487   1.042       .  S
N484        H488   1.046       .  S
C489        C490   1.432       .  A
C489        C494   1.423       .  A
C489        H496   1.078       .  S
C490        C491   1.420       .  A
C491        C492   1.407       .  A
C491        N498   1.427       .  S
C492        C493   1.402       .  A
C492        H497   1.070       .  S
C493        C494   1.407       .  A
C494        N495   1.436       .  S
N495        H499   1.044       .  S
N495        H500   1.041       .  S
N498        H501   1.046       .  S
N498        H502   1.045       .  S
C503        C504   1.416       .  A
C503        C508   1.412       .  A
C503        H510   1.083       .  S
C504        C505   1.416       .  A
C505        C506   1.411       .  A
C505        N512   1.430       .  S
C506        C507   1.424       .  A
C506        H511   1.084       .  S
C507        C508   1.421       .  A
C507        C694   1.575   1_545  S
C508        N509   1.432       .  S
N509        H513   1.046       .  S
N509        H514   1.044   1_545  S
N512        H515   1.045       .  S
N512        H516   1.045       .  S
O517        C528   1.304       .  A
O517       Eu553   2.524       .  S
O518        C529   1.311       .  A
O518       Eu552   2.569       .  S
O519        C530   1.277       .  A
O519       Eu525   2.397       .  S
O520        C531   1.290       .  A
O520       Eu525   2.452       .  S
O521        C531   1.275       .  A
O521       Eu555   2.380       .  S
O522        C530   1.294       .  A
O522       Eu554   2.479       .  S
O523        C529   1.283       .  A
O523       Eu525   2.406       .  S
O524        C528   1.289       .  A
O524       Eu525   2.440       .  S
Eu525       O535   2.313       .  S
Eu525       O527   2.369       .  S
Eu525       O526   2.326       .  S
Eu525       O533   2.355       .  S
O526       Eu555   2.331       .  S
O526       Eu552   2.359       .  S
O527       Eu553   2.390       .  S
O527       Eu554   2.343       .  S
C528       C1020   1.513       .  S
C529        C897   1.517       .  S
C530        C925   1.454       .  S
C531        C936   1.453       .  S
H532        O533   0.965       .  S
O533       Eu554   2.329       .  S
O533       Eu552   2.367       .  S
H534        O535   0.964       .  S
O535       Eu553   2.386       .  S
O535       Eu555   2.359       .  S
O536        C559   1.306       .  A
O536       Eu552   2.528       .  S
O537        C560   1.307       .  A
O537       Eu553   2.541       .  S
O538        C561   1.282       .  A
O538       Eu554   2.409       .  S
O539        C562   1.291       .  A
O539       Eu555   2.452       .  S
O540        C563   1.289       .  A
O540       Eu555   2.446       .  S
O541        C564   1.289       .  A
O541       Eu554   2.444       .  S
O542        C565   1.294       .  A
O542       Eu556   2.470       .  S
O543        C566   1.287       .  A
O543       Eu556   2.453       .  S
O544        C565   1.282       .  A
O544       Eu554   2.411       .  S
O545        C566   1.285       .  A
O545       Eu555   2.423       .  S
O546        C561   1.310       .  A
O546       Eu552   2.567       .  S
O547        C564   1.318       .  A
O547       Eu553   2.612       .  S
O548        C563   1.314       .  A
O548       Eu553   2.585       .  S
O549        C562   1.309       .  A
O549       Eu552   2.554       .  S
O550        C559   1.290       .  A
O550       Eu556   2.447       .  S
O551        C560   1.291       .  A
O551       Eu556   2.450       .  S
Eu552       O570   2.407       .  S
Eu552       O558   2.379       .  S
Eu553       O557   2.377       .  S
Eu553       O568   2.352       .  S
Eu554       O568   2.345       .  S
Eu554       O558   2.362       .  S
Eu555       O557   2.331       .  S
Eu555       O570   2.346       .  S
Eu556       O557   2.349       .  S
Eu556       O568   2.329       .  S
Eu556       O570   2.370       .  S
Eu556       O558   2.354       .  S
C559        C908   1.497       .  S
C560       C1009   1.511       .  S
C561        C866   1.522       .  S
C562        C883   1.519       .  S
C563        C978   1.517       .  S
C564        C992   1.535       .  S
C565        C964   1.466       .  S
C566        C950   1.462       .  S
H567        O568   0.962       .  S
H569        O570   0.965       .  S
N571        C576   1.345       .  A
N571       C1607   1.344       .  A
N571        H603   1.045       .  S
N572        C580   1.342       .  A
N573        C578   1.351       .  A
N573       C1609   1.347       .  A
N573        H604   1.040       .  S
N574        C582   1.340       .  A
C575       N1603   1.340       .  A
C575        C583   1.380       .  A
C575        C591   1.389       .  A
C576        C592   1.404       .  A
C576        C584   1.388       .  A
C577       N1605   1.346       .  A
C577        C585   1.371       .  A
C577        C594   1.382   1_655  A
C578        C593   1.419       .  A
C578        C586   1.393       .  A
C579        C591   1.401   1_545  A
C579        C587   1.384       .  A
C580        C594   1.400       .  A
C580        C588   1.387       .  A
C581        C589   1.394       .  A
C581        C592   1.413       .  A
C582        C590   1.382       .  A
C582        C593   1.397       .  A
C583       C1616   1.381       .  A
C583        H595   1.080       .  S
C584       C1615   1.378       .  A
C584        H596   1.080       .  S
C585       C1618   1.362       .  A
C585        H597   1.077       .  S
C586       C1617   1.360       .  A
C586        H598   1.074       .  S
C587        H599   1.076       .  S
C588        H600   1.082       .  S
C589        H601   1.081       .  S
C590        H602   1.083       .  S
C591        C953   1.490       .  S
C592        C967   1.466       .  S
C593        C922   1.471       .  S
C594        C939   1.456       .  S
O605        C616   1.307       .  A
O606        C617   1.309       .  A
O606       Eu640   2.553       .  S
O607        C618   1.272       .  A
O607      Eu1645   2.368   1_455  S
O608        C619   1.279       .  A
O608       Eu613   2.415   1_554  S
O609        C619   1.286       .  A
O609       Eu643   2.460   1_564  S
O610        C618   1.296       .  A
O610       Eu642   2.493       .  S
O611        C617   1.287       .  A
O611       Eu613   2.445   1_554  S
O612        C616   1.286       .  A
O612       Eu613   2.429       .  S
Eu613      O1639   2.359       .  S
Eu613       O623   2.338       .  S
Eu613      O1647   2.344       .  S
Eu613       O614   2.317   1_556  S
Eu613      O1653   2.362   1_556  S
O614       Eu643   2.323   1_564  S
O614       Eu640   2.364       .  S
O615      Eu1645   2.356   1_455  S
O615      Eu1157   2.387   1_465  S
O615       Eu642   2.338       .  S
C616        C852   1.496       .  S
C617        C729   1.508       .  S
C618        C754   1.464   1_556  S
C619        C768   1.462       .  S
H620        O621   0.966       .  S
O621      Eu1645   2.355   1_454  S
O621       Eu642   2.347   1_554  S
O621      Eu1672   2.386   1_455  S
H622        O623   0.965       .  S
O623       Eu643   2.348   1_565  S
O624        C647   1.309       .  A
O625        C648   1.310       .  A
O625       Eu641   2.565       .  S
O626        C649   1.279       .  A
O626       Eu642   2.384   1_554  S
O627        C650   1.283       .  A
O627       Eu643   2.408   1_554  S
O628        C651   1.288       .  A
O629        C652   1.284       .  A
O630        C653   1.278   1_556  A
O630      Eu1676   2.400       .  S
O631        C654   1.279   1_556  A
O631       Eu644   2.407       .  S
O632        C653   1.290       .  A
O633        C654   1.285   1_556  A
O634        C649   1.320       .  A
O634      Eu1672   2.613   1_455  S
O635        C652   1.314       .  A
O635      Eu1673   2.584   1_455  S
O636        C651   1.311       .  A
O636       Eu641   2.563       .  S
O637        C650   1.321       .  A
O637       Eu640   2.617   1_545  S
O638        C647   1.287       .  A
O638       Eu644   2.441   1_554  S
O639        C648   1.284       .  A
O639       Eu644   2.423       .  S
Eu640      O1666   2.613       .  S
Eu640      O1653   2.397       .  S
Eu640      O1162   2.352   1_565  S
Eu641      O1667   2.587       .  S
Eu641      O1131   2.380       .  S
Eu641       O645   2.392       .  S
Eu641      O1688   2.387       .  S
Eu644      O1662   2.397       .  S
Eu644       O645   2.348       .  S
Eu644      O1688   2.342       .  S
Eu644       O658   2.342   1_556  S
Eu644      O1678   2.338   1_556  S
O646      Eu1156   2.354       .  S
O646      Eu1676   2.332   1_554  S
C647        C743   1.510       .  S
C648        C838   1.519       .  S
C649        C698   1.521       .  S
C650        C712   1.525       .  S
C651        C810   1.506       .  S
C652        C827   1.518       .  S
C653        C796   1.464       .  S
C654        C782   1.443       .  S
H655        O656   0.966       .  S
O656      Eu1673   2.386   1_455  S
O656      Eu1676   2.336       .  S
H657        O658   0.964       .  S
N659        C664   1.344       .  A
N659        C663   1.346       .  A
N659        H691   1.042       .  S
N660        C667   1.336       .  A
N660        C668   1.339       .  A
N661        C666   1.336       .  A
N661        C665   1.345       .  A
N661        H692   1.044       .  S
N662        C669   1.346       .  A
N662        C670   1.346       .  A
C663        C671   1.388       .  A
C663        C679   1.407       .  A
C664        C680   1.403       .  A
C664        C672   1.387       .  A
C665        C673   1.384       .  A
C665        C682   1.392       .  A
C666        C681   1.399       .  A
C666        C674   1.393       .  A
C667        C679   1.390       .  A
C667        C675   1.383       .  A
C668        C682   1.386       .  A
C668        C676   1.371       .  A
C669        C677   1.377       .  A
C669        C680   1.398       .  A
C670        C678   1.379       .  A
C670        C681   1.394       .  A
C671        C672   1.375       .  A
C671        H683   1.083       .  S
C672        H684   1.080       .  S
C673        C674   1.369       .  A
C673        H685   1.082       .  S
C674        H686   1.082       .  S
C675        C676   1.376       .  A
C675        H687   1.078       .  S
C676        H688   1.077       .  S
C677        C678   1.365       .  A
C677        H689   1.070       .  S
C678        H690   1.082       .  S
C679        C757   1.497       .  S
C680        C771   1.474       .  S
C681        C785   1.456       .  S
C682        C799   1.464       .  S
C693       C1758   1.602       .  S
C693       C1772   1.608       .  S
C693        C981   1.606   1_655  S
C693       C2027   1.604       .  S
C694        C701   1.601       .  S
C694        C715   1.602   1_565  S
C694       C1006   1.597       .  S
C695        C841   1.585       .  S
C695        C855   1.589       .  S
C695        C869   1.578       .  S
C695       C1912   1.596       .  S
C696        C911   1.583   1_545  S
C697        C698   1.392       .  A
C697        C702   1.416       .  A
C697        H704   1.084       .  S
C699        C700   1.416       .  A
C699        N706   1.433       .  S
C700        H705   1.079       .  S
C701        C702   1.435       .  A
C702        N703   1.421       .  S
N703        H707   1.042       .  S
N703        H708   1.038   1_565  S
N706        H709   1.046       .  S
N706        H710   1.046       .  S
C711        C712   1.397       .  A
C712        C713   1.425   1_545  A
C713        C714   1.412       .  A
C713        N720   1.431       .  S
C714        C715   1.405   1_565  A
C714        H719   1.081       .  S
C716        N717   1.434       .  S
N717        H722   1.046       .  S
N720        H723   1.046       .  S
N720        H724   1.043       .  S
C725       C1758   1.430   1_455  A
C725        C730   1.408       .  A
C725        H732   1.071       .  S
C726       C1757   1.430       .  A
C726        C727   1.430       .  A
C726       C1725   1.600       .  S
C727        C728   1.422       .  A
C727        N734   1.436       .  S
C728        C729   1.411       .  A
C728        H733   1.083       .  S
C729       C1762   1.404       .  A
C730       C1761   1.405   1_455  A
C730        N731   1.433       .  S
N731        H735   1.043       .  S
N731        H736   1.045       .  S
N734        H737   1.043       .  S
N734        H738   1.045       .  S
C739        C740   1.431       .  A
C739        C744   1.410       .  A
C739        H746   1.072       .  S
C740       C1773   1.436       .  A
C740       C1725   1.615       .  S
C741       C1772   1.432   1_455  A
C741        C742   1.422       .  A
C741        N748   1.436       .  S
C742       C1775   1.410       .  A
C742        H747   1.083       .  S
C743       C1774   1.409       .  A
C743        C744   1.404       .  A
C744        N745   1.432       .  S
N745        H749   1.045       .  S
N745        H750   1.044       .  S
N748        H751   1.044       .  S
N748        H752   1.046       .  S
C753        C754   1.392       .  A
C753        C758   1.400       .  A
C753        H760   1.083   1_554  S
C754        C755   1.412       .  A
C755        C756   1.391       .  A
C755        N762   1.431       .  S
C756        C757   1.399       .  A
C756        H761   1.076       .  S
C757        C758   1.422       .  A
C758        N759   1.434       .  S
N759        H763   1.046   1_554  S
N759        H764   1.046       .  S
N762        H765   1.039       .  S
N762        H766   1.045       .  S
C767        C768   1.394       .  A
C767        C772   1.396       .  A
C767        H774   1.084   1_554  S
C768        C769   1.415       .  A
C769        C770   1.394       .  A
C769        N776   1.429       .  S
C770        C771   1.389       .  A
C770        H775   1.084       .  S
C771        C772   1.418       .  A
C772        N773   1.430       .  S
N773        H777   1.040       .  S
N773        H778   1.045       .  S
N776        H779   1.042       .  S
N776        H780   1.041       .  S
C781        C782   1.404       .  A
C781        C786   1.384       .  A
C781        H788   1.082       .  S
C782        C783   1.400       .  A
C783        C784   1.397       .  A
C783        N790   1.432   1_554  S
C784        C785   1.405       .  A
C784        H789   1.083       .  S
C785        C786   1.394       .  A
C786        N787   1.433       .  S
N787        H791   1.045       .  S
N787        H792   1.044       .  S
N790        H793   1.046       .  S
N790        H794   1.046       .  S
C795        C796   1.397       .  A
C795        C800   1.397       .  A
C795        H802   1.084   1_554  S
C796        C797   1.413       .  A
C797        C798   1.394       .  A
C797        N804   1.430       .  S
C798        C799   1.389       .  A
C798        H803   1.085       .  S
C799        C800   1.420       .  A
C800        N801   1.439       .  S
N801        H805   1.046       .  S
N801        H806   1.042       .  S
N804        H807   1.039       .  S
N804        H808   1.046       .  S
C809        C810   1.410       .  A
C809        C814   1.413       .  A
C809        H816   1.084       .  S
C811        C812   1.410       .  A
C811        N818   1.439       .  S
C812        H817   1.080       .  S
C813        C814   1.421       .  A
C814        N815   1.430       .  S
N815        H819   1.045       .  S
N815        H820   1.046       .  S
C823        C828   1.414       .  A
C823        H830   1.082   1_545  S
C824        C825   1.418       .  A
C825        C826   1.412       .  A
C825        N832   1.431       .  S
C826        C827   1.419       .  A
C826        H831   1.084       .  S
C828        N829   1.431   1_545  S
N829        H833   1.046   1_565  S
N829        H834   1.045       .  S
N832        H835   1.045       .  S
N832        H836   1.045       .  S
C837       C1870   1.399   1_455  A
C837        C842   1.415       .  A
C837        H844   1.083       .  S
C838       C1869   1.402       .  A
C838        C839   1.426       .  A
C839        C840   1.411       .  A
C839        N846   1.433       .  S
C840        C841   1.408       .  A
C840        H845   1.080       .  S
C841       C1874   1.434       .  A
C842       C1873   1.432       .  A
C842        N843   1.430       .  S
N843        H847   1.046   1_455  S
N843        H848   1.046       .  S
N846        H849   1.046       .  S
N846        H850   1.046       .  S
C851        C852   1.395       .  A
C851        C856   1.415       .  A
C851        H858   1.084       .  S
C852       C1885   1.411       .  A
C853       C1884   1.411       .  A
C853        C854   1.410       .  A
C853        N860   1.433       .  S
C854       C1887   1.416   1_455  A
C854        H859   1.083       .  S
C855       C1886   1.414       .  A
C855        C856   1.445       .  A
C856        N857   1.433       .  S
N857        H861   1.046       .  S
N857        H862   1.046       .  S
N860        H863   1.045       .  S
N860        H864   1.046       .  S
C865        C866   1.422       .  A
C865        C870   1.412       .  A
C865        H872   1.083       .  S
C866        C867   1.411       .  A
C867        C868   1.411       .  A
C867        N874   1.431       .  S
C868        C869   1.429       .  A
C868        H873   1.083       .  S
C869        C870   1.417       .  A
C870        N871   1.432       .  S
N871        H875   1.045       .  S
N871        H876   1.046       .  S
N874        H877   1.045       .  S
N874        H878   1.045       .  S
C879        C880   1.427       .  A
C879        C884   1.421       .  A
C879        H886   1.080       .  S
C880        C881   1.425       .  A
C880       C1727   1.594       .  S
C881        C882   1.415       .  A
C881        N888   1.429       .  S
C882        C883   1.410       .  A
C882        H887   1.084       .  S
C883        C884   1.411       .  A
C884        N885   1.432       .  S
N885        H889   1.046       .  S
N885        H890   1.046       .  S
N888        H891   1.043       .  S
N888        H892   1.046       .  S
C893        C894   1.429       .  A
C893        C898   1.419       .  A
C893        H900   1.081       .  S
C894        C895   1.416       .  A
C895        C896   1.409       .  A
C895        N902   1.431       .  S
C896        C897   1.420       .  A
C896        H901   1.083       .  S
C897        C898   1.407       .  A
C898        N899   1.437       .  S
N899        H903   1.045       .  S
N899        H904   1.046       .  S
N902        H905   1.046       .  S
N902        H906   1.046       .  S
C907        C908   1.395       .  A
C907        C912   1.408       .  A
C907        H914   1.084       .  S
C908        C909   1.412       .  A
C909        C910   1.412       .  A
C909        N916   1.433       .  S
C910        C911   1.418       .  A
C910        H915   1.083       .  S
C911        C912   1.440       .  A
C912        N913   1.432       .  S
N913        H917   1.046       .  S
N913        H918   1.046       .  S
N916        H919   1.046       .  S
N916        H920   1.046       .  S
C921        C922   1.403       .  A
C921        C926   1.395       .  A
C921        H928   1.085       .  S
C922        C923   1.405       .  A
C923        C924   1.402       .  A
C923        N930   1.436       .  S
C924        C925   1.403       .  A
C924        H929   1.084       .  S
C925        C926   1.401       .  A
C926        N927   1.431       .  S
N927        H931   1.044       .  S
N927        H932   1.046       .  S
N930        H933   1.046       .  S
N930        H934   1.046       .  S
C935        C936   1.397       .  A
C935        C940   1.390       .  A
C935        H942   1.084       .  S
C936        C937   1.416       .  A
C937        C938   1.394       .  A
C937        N944   1.436       .  S
C938        C939   1.391       .  A
C938        H943   1.084       .  S
C939        C940   1.406       .  A
C940        N941   1.433       .  S
N941        H945   1.045       .  S
N941        H946   1.046       .  S
N944        H947   1.044       .  S
N944        H948   1.046       .  S
C949        C950   1.399       .  A
C949        C954   1.392       .  A
C949        H956   1.084       .  S
C950        C951   1.400       .  A
C951        C952   1.406       .  A
C951        N958   1.431       .  S
C952        C953   1.415       .  A
C952        H957   1.082       .  S
C953        C954   1.411       .  A
C954        N955   1.434       .  S
N955        H959   1.046       .  S
N955        H960   1.044       .  S
N958        H961   1.046       .  S
N958        H962   1.046       .  S
C963        C964   1.406       .  A
C963        C968   1.403       .  A
C963        H970   1.084       .  S
C964        C965   1.407       .  A
C965        C966   1.387       .  A
C965        N972   1.427       .  S
C966        C967   1.393       .  A
C966        H971   1.085       .  S
C967        C968   1.401       .  A
C968        N969   1.428       .  S
N969        H973   1.044       .  S
N969        H974   1.040       .  S
N972        H975   1.046       .  S
N972        H976   1.045       .  S
C977        C978   1.408       .  A
C977        C982   1.411       .  A
C977        H984   1.084       .  S
C978        C979   1.416       .  A
C979        C980   1.422       .  A
C979        N986   1.433       .  S
C980        C981   1.427       .  A
C980        H985   1.078       .  S
C981        C982   1.436       .  A
C982        N983   1.431       .  S
N983        H987   1.044   1_455  S
N983        H988   1.039       .  S
N986        H989   1.046       .  S
N986        H990   1.044       .  S
C991        C992   1.411       .  A
C991        C996   1.432       .  A
C991        H998   1.083       .  S
C992        C993   1.422       .  A
C993        C994   1.418       .  A
C993       N1000   1.429       .  S
C994        C995   1.414       .  A
C994        H999   1.084       .  S
C995        C996   1.436       .  A
C995       C1725   1.607       .  S
C996        N997   1.434       .  S
N997       H1001   1.046       .  S
N997       H1002   1.039       .  S
N1000      H1003   1.045       .  S
N1000      H1004   1.045       .  S
C1005      C1006   1.430       .  A
C1005      C1010   1.421       .  A
C1005      H1012   1.078       .  S
C1006      C1007   1.422       .  A
C1007      C1008   1.408       .  A
C1007      N1014   1.426       .  S
C1008      C1009   1.403       .  A
C1008      H1013   1.073       .  S
C1009      C1010   1.406       .  A
C1010      N1011   1.436       .  S
N1011      H1015   1.044       .  S
N1011      H1016   1.043       .  S
N1014      H1017   1.046       .  S
N1014      H1018   1.045       .  S
C1019      C1020   1.415       .  A
C1019      C1024   1.411       .  A
C1019      H1026   1.083       .  S
C1020      C1021   1.414       .  A
C1021      C1022   1.405       .  A
C1021      N1028   1.430       .  S
C1022      C1023   1.422       .  A
C1022      H1027   1.084       .  S
C1023      C1024   1.422       .  A
C1024      N1025   1.433       .  S
N1025      H1029   1.046       .  S
N1025      H1030   1.043       .  S
N1028      H1031   1.045       .  S
N1028      H1032   1.045       .  S
O1033      C1044   1.304       .  A
O1033     Eu1069   2.529       .  S
O1034      C1045   1.313       .  A
O1034     Eu1068   2.575       .  S
O1035      C1046   1.279       .  A
O1035     Eu1041   2.407       .  S
O1036      C1047   1.292       .  A
O1036     Eu1041   2.465       .  S
O1037      C1047   1.274       .  A
O1037     Eu1071   2.375       .  S
O1038      C1046   1.294       .  A
O1038     Eu1070   2.478       .  S
O1039      C1045   1.284       .  A
O1039     Eu1041   2.413       .  S
O1040      C1044   1.288       .  A
O1040     Eu1041   2.436       .  S
Eu1041     O1051   2.324       .  S
Eu1041     O1043   2.369       .  S
Eu1041     O1042   2.327       .  S
Eu1041     O1049   2.358       .  S
O1042     Eu1071   2.335       .  S
O1042     Eu1068   2.363       .  S
O1043     Eu1069   2.390       .  S
O1043     Eu1070   2.347       .  S
C1044      C1536   1.514       .  S
C1045      C1413   1.520       .  S
C1046      C1441   1.457       .  S
C1047      C1452   1.455       .  S
H1048      O1049   0.964       .  S
O1049     Eu1070   2.329       .  S
O1049     Eu1068   2.368       .  S
H1050      O1051   0.964       .  S
O1051     Eu1069   2.379       .  S
O1051     Eu1071   2.358       .  S
O1052      C1075   1.308       .  A
O1052     Eu1068   2.544       .  S
O1053      C1076   1.304       .  A
O1053     Eu1069   2.524       .  S
O1054      C1077   1.285       .  A
O1054     Eu1070   2.423       .  S
O1055      C1078   1.289       .  A
O1055     Eu1071   2.439       .  S
O1056      C1079   1.288       .  A
O1056     Eu1071   2.445       .  S
O1057      C1080   1.290       .  A
O1057     Eu1070   2.452       .  S
O1058      C1081   1.294       .  A
O1058     Eu1072   2.468       .  S
O1059      C1082   1.286       .  A
O1059     Eu1072   2.450       .  S
O1060      C1081   1.280       .  A
O1060     Eu1070   2.405       .  S
O1061      C1082   1.284       .  A
O1061     Eu1071   2.419       .  S
O1062      C1077   1.309       .  A
O1062     Eu1068   2.559       .  S
O1063      C1080   1.317       .  A
O1063     Eu1069   2.605       .  S
O1064      C1079   1.315       .  A
O1064     Eu1069   2.589       .  S
O1065      C1078   1.307       .  A
O1065     Eu1068   2.545       .  S
O1066      C1075   1.291       .  A
O1066     Eu1072   2.455       .  S
O1067      C1076   1.290       .  A
O1067     Eu1072   2.440       .  S
Eu1068     O1086   2.404       .  S
Eu1068     O1074   2.373       .  S
Eu1069     O1073   2.376       .  S
Eu1069     O1084   2.360       .  S
Eu1070     O1084   2.348       .  S
Eu1070     O1074   2.360       .  S
Eu1071     O1073   2.324       .  S
Eu1071     O1086   2.349       .  S
Eu1072     O1073   2.350       .  S
Eu1072     O1084   2.336       .  S
Eu1072     O1086   2.366       .  S
Eu1072     O1074   2.347       .  S
C1075      C1424   1.512       .  S
C1076      C1525   1.500       .  S
C1077      C1382   1.523       .  S
C1078      C1399   1.512       .  S
C1079      C1494   1.524       .  S
C1080      C1508   1.532       .  S
C1081      C1480   1.459       .  S
C1082      C1466   1.458       .  S
H1083      O1084   0.961       .  S
H1085      O1086   0.968       .  S
N1087      C1092   1.344       .  A
N1087      H1119   1.046       .  S
N1088      C1611   1.348       .  A
N1088      C1096   1.342       .  A
N1089      C1094   1.353       .  A
N1089      H1120   1.038   1_655  S
N1090      C1613   1.345       .  A
N1090      C1098   1.342       .  A
C1091      C1099   1.380       .  A
C1091      C1107   1.392       .  A
C1092      C1108   1.403   1_455  A
C1092      C1100   1.388       .  A
C1093      C1101   1.371       .  A
C1093      C1110   1.383       .  A
C1094      C1109   1.420       .  A
C1094      C1102   1.392       .  A
C1095      N1604   1.347       .  A
C1095      C1107   1.400       .  A
C1095      C1103   1.387       .  A
C1096      C1110   1.399       .  A
C1096      C1104   1.386       .  A
C1097      N1606   1.342       .  A
C1097      C1105   1.393       .  A
C1097      C1108   1.412       .  A
C1098      C1106   1.382       .  A
C1098      C1109   1.401   1_565  A
C1099      H1111   1.080       .  S
C1100      H1112   1.080   1_455  S
C1101      H1113   1.078       .  S
C1102      H1114   1.075       .  S
C1103      C1620   1.369       .  A
C1103      H1115   1.079       .  S
C1104      C1619   1.366       .  A
C1104      H1116   1.083       .  S
C1105      C1622   1.375       .  A
C1105      H1117   1.080       .  S
C1106      C1621   1.375       .  A
C1106      H1118   1.083       .  S
C1107      C1469   1.487       .  S
C1108      C1483   1.466       .  S
C1109      C1438   1.477       .  S
C1110      C1455   1.456       .  S
O1121      C1132   1.308   1_455  A
O1121     Eu1673   2.547   1_455  S
O1122      C1133   1.306       .  A
O1122     Eu1156   2.534       .  S
O1123      C1134   1.275       .  A
O1124      C1135   1.281       .  A
O1124     Eu1129   2.425   1_554  S
O1125      C1135   1.288       .  A
O1125     Eu1159   2.469   1_554  S
O1126      C1134   1.292       .  A
O1126     Eu1158   2.475       .  S
O1127      C1133   1.286   1_655  A
O1127     Eu1129   2.435   1_554  S
O1128      C1132   1.284       .  A
O1128     Eu1129   2.419       .  S
Eu1129     O1139   2.339       .  S
Eu1129     O1130   2.316   1_556  S
O1130     Eu1159   2.320   1_554  S
O1130     Eu1156   2.355   1_655  S
O1131     Eu1158   2.342       .  S
C1132      C1368   1.495   1_655  S
C1133      C1245   1.500       .  S
C1134      C1270   1.464   1_556  S
C1135      C1284   1.469       .  S
H1136      O1137   0.966       .  S
O1137     Eu1158   2.346   1_554  S
H1138      O1139   0.966       .  S
O1139     Eu1673   2.409       .  S
O1139     Eu1159   2.353       .  S
O1140      C1163   1.311       .  A
O1140     Eu1672   2.563   1_445  S
O1141      C1164   1.312       .  A
O1141     Eu1157   2.577       .  S
O1142      C1165   1.280       .  A
O1142     Eu1158   2.397   1_554  S
O1143      C1166   1.282       .  A
O1143     Eu1159   2.397   1_554  S
O1144      C1167   1.287       .  A
O1144     Eu1675   2.426       .  S
O1145      C1168   1.285       .  A
O1145     Eu1674   2.410       .  S
O1146      C1169   1.279   1_556  A
O1147      C1170   1.278   1_556  A
O1147     Eu1160   2.402   1_655  S
O1148      C1169   1.288       .  A
O1148     Eu1674   2.464   1_544  S
O1149      C1170   1.284   1_556  A
O1149     Eu1675   2.418       .  S
O1150      C1165   1.318       .  A
O1151      C1168   1.312       .  A
O1152      C1167   1.310       .  A
O1152     Eu1157   2.562       .  S
O1153      C1166   1.324       .  A
O1153     Eu1156   2.629   1_655  S
O1154      C1163   1.288       .  A
O1154     Eu1160   2.447   1_554  S
O1155      C1164   1.285   1_455  A
O1155     Eu1160   2.426       .  S
Eu1156     O1656   2.546       .  S
Eu1156     O1690   2.365   1_455  S
Eu1157     O1637   2.554   1_545  S
Eu1157     O1655   2.410   1_545  S
Eu1157     O1161   2.385       .  S
Eu1158     O1661   2.407       .  S
Eu1158     O1664   2.467   1_556  S
Eu1158     O1688   2.361       .  S
Eu1158     O1678   2.335   1_556  S
Eu1159     O1660   2.422       .  S
Eu1159     O1665   2.434   1_556  S
Eu1159     O1677   2.357       .  S
Eu1159     O1690   2.348   1_556  S
Eu1160     O1161   2.350   1_455  S
Eu1160     O1174   2.341   1_456  S
O1161     Eu1675   2.355       .  S
O1162     Eu1674   2.334   1_544  S
C1163      C1259   1.515       .  S
C1164      C1354   1.525       .  S
C1165      C1214   1.526       .  S
C1166      C1228   1.525       .  S
C1167      C1326   1.507   1_545  S
C1168      C1343   1.513   1_565  S
C1169      C1312   1.455       .  S
C1170      C1298   1.439       .  S
H1171      O1172   0.966       .  S
O1172     Eu1674   2.364   1_545  S
H1173      O1174   0.964       .  S
O1174     Eu1672   2.370   1_545  S
O1174     Eu1675   2.358   1_554  S
N1175      C1180   1.347       .  A
N1175      C1179   1.347       .  A
N1175      H1207   1.041       .  S
N1176      C1183   1.339       .  A
N1176      C1184   1.340       .  A
N1177      C1182   1.338       .  A
N1177      C1181   1.347       .  A
N1177      H1208   1.042       .  S
N1178      C1185   1.346       .  A
N1178      C1186   1.347       .  A
C1179      C1187   1.388       .  A
C1179      C1195   1.408       .  A
C1180      C1196   1.404       .  A
C1180      C1188   1.386       .  A
C1181      C1189   1.381       .  A
C1181      C1198   1.391       .  A
C1182      C1197   1.404       .  A
C1182      C1190   1.395       .  A
C1183      C1195   1.394       .  A
C1183      C1191   1.387       .  A
C1184      C1198   1.384       .  A
C1184      C1192   1.370       .  A
C1185      C1193   1.375       .  A
C1185      C1196   1.399       .  A
C1186      C1194   1.382       .  A
C1186      C1197   1.395       .  A
C1187      C1188   1.373       .  A
C1187      H1199   1.083       .  S
C1188      H1200   1.080       .  S
C1189      C1190   1.363       .  A
C1189      H1201   1.082       .  S
C1190      H1202   1.080       .  S
C1191      C1192   1.373       .  A
C1191      H1203   1.080       .  S
C1192      H1204   1.079       .  S
C1193      C1194   1.364       .  A
C1193      H1205   1.069       .  S
C1194      H1206   1.083       .  S
C1195      C1273   1.493       .  S
C1196      C1287   1.479       .  S
C1197      C1301   1.456       .  S
C1198      C1315   1.463       .  S
C1209      C1497   1.613       .  S
C1210      C1217   1.599       .  S
C1210      C1231   1.605       .  S
C1210      C1522   1.591       .  S
C1210      C2055   1.572       .  S
C1211      C1357   1.590       .  S
C1211      C1371   1.591   1_455  S
C1211      C1385   1.581   1_455  S
C1212      C1845   1.587       .  S
C1212      C1856   1.579       .  S
C1212      C1926   1.586       .  S
C1212      C1427   1.592       .  S
C1213      C1214   1.396       .  A
C1213      C1218   1.418       .  A
C1213      H1220   1.084       .  S
C1214      C1731   1.432       .  A
C1215      C1730   1.430   1_545  A
C1215      C1216   1.420       .  A
C1215      N1222   1.433       .  S
C1216      C1733   1.411   1_545  A
C1216      H1221   1.080       .  S
C1217      C1732   1.407       .  A
C1217      C1218   1.435       .  A
C1218      N1219   1.423       .  S
N1219      H1223   1.041       .  S
N1219      H1224   1.040       .  S
N1222      H1225   1.046       .  S
N1222      H1226   1.046       .  S
C1227      C1228   1.396       .  A
C1227      C1748   1.425       .  A
C1227      H1750   1.083       .  S
C1228      C1229   1.426       .  A
C1229      C1230   1.413       .  A
C1229      N1236   1.431       .  S
C1230      C1231   1.406       .  A
C1230      H1235   1.081       .  S
C1231      C1748   1.452       .  A
C1232      C1743   1.421       .  A
C1232      C1747   1.451   1_545  A
C1232      N1233   1.434       .  S
N1233      H1753   1.045       .  S
N1233      H1238   1.046       .  S
H1234      C1743   1.083       .  S
N1236      H1239   1.046       .  S
N1236      H1240   1.043       .  S
H1237      N1749   1.045       .  S
C1241      C1246   1.402       .  A
C1241      H1248   1.072       .  S
C1242      C1243   1.427   1_455  A
C1243      C1244   1.419       .  A
C1243      N1250   1.436       .  S
C1244      C1245   1.410   1_655  A
C1244      H1249   1.083       .  S
C1246      N1247   1.433       .  S
N1247      H1251   1.044       .  S
N1247      H1252   1.045       .  S
N1250      H1253   1.043       .  S
N1250      H1254   1.045       .  S
C1255      C1256   1.433   1_655  A
C1255      C1260   1.409       .  A
C1255      H1262   1.071       .  S
C1257      C1258   1.426       .  A
C1257      N1264   1.436       .  S
C1258      H1263   1.083       .  S
C1259      C1260   1.403   1_455  A
C1260      N1261   1.431       .  S
N1261      H1265   1.045       .  S
N1261      H1266   1.044       .  S
N1264      H1267   1.042       .  S
N1264      H1268   1.045       .  S
C1269      C1270   1.395       .  A
C1269      C1274   1.402       .  A
C1269      H1276   1.083   1_554  S
C1270      C1271   1.411       .  A
C1271      C1272   1.388       .  A
C1271      N1278   1.437       .  S
C1272      C1273   1.397       .  A
C1272      H1277   1.073       .  S
C1273      C1274   1.424       .  A
C1274      N1275   1.436       .  S
N1275      H1279   1.046   1_554  S
N1275      H1280   1.046       .  S
N1278      H1281   1.045       .  S
N1278      H1282   1.046       .  S
C1283      C1284   1.396       .  A
C1283      C1288   1.398       .  A
C1283      H1290   1.084   1_554  S
C1284      C1285   1.416       .  A
C1285      C1286   1.398       .  A
C1285      N1292   1.429       .  S
C1286      C1287   1.391       .  A
C1286      H1291   1.084       .  S
C1287      C1288   1.417       .  A
C1288      N1289   1.431       .  S
N1289      H1293   1.042       .  S
N1289      H1294   1.044       .  S
N1292      H1295   1.043       .  S
N1292      H1296   1.042       .  S
C1297      C1298   1.405       .  A
C1297      C1302   1.384       .  A
C1297      H1304   1.080       .  S
C1298      C1299   1.398       .  A
C1299      C1300   1.394       .  A
C1299      N1306   1.432   1_554  S
C1300      C1301   1.406       .  A
C1300      H1305   1.082       .  S
C1301      C1302   1.393       .  A
C1302      N1303   1.433       .  S
N1303      H1307   1.045       .  S
N1303      H1308   1.042       .  S
N1306      H1309   1.046       .  S
N1306      H1310   1.045       .  S
C1311      C1312   1.396       .  A
C1311      C1316   1.398       .  A
C1311      H1318   1.084   1_554  S
C1312      C1313   1.410       .  A
C1313      C1314   1.390       .  A
C1313      N1320   1.429       .  S
C1314      C1315   1.388       .  A
C1314      H1319   1.085       .  S
C1315      C1316   1.421       .  A
C1316      N1317   1.440       .  S
N1317      H1321   1.045   1_554  S
N1317      H1322   1.043       .  S
N1320      H1323   1.043       .  S
N1320      H1324   1.042       .  S
C1325      C1326   1.410       .  A
C1325      C1330   1.412       .  A
C1325      H1332   1.084       .  S
C1326      C1843   1.407   1_565  A
C1327      C1842   1.406       .  A
C1327      C1328   1.409       .  A
C1327      N1334   1.432       .  S
C1328      C1845   1.430       .  A
C1328      H1333   1.081       .  S
C1329      C1844   1.430   1_565  A
C1329      C1330   1.421       .  A
C1329      C1728   1.587       .  S
C1330      N1331   1.429       .  S
N1331      H1335   1.045       .  S
N1331      H1336   1.046       .  S
N1334      H1853   1.045       .  S
N1334      H1854   1.046       .  S
H1337      N1850   1.045       .  S
H1338      N1850   1.045       .  S
C1339      C1856   1.428       .  A
C1339      C1344   1.414       .  A
C1339      H1346   1.081       .  S
C1340      C1855   1.428   1_545  A
C1340      C1341   1.418       .  A
C1340      C1728   1.577   1_545  S
C1341      C1342   1.411       .  A
C1341      N1348   1.432       .  S
C1342      C1343   1.417       .  A
C1342      H1347   1.084       .  S
C1343      C1860   1.409   1_545  A
C1344      C1859   1.410       .  A
C1344      N1345   1.431       .  S
N1345      H1349   1.045       .  S
N1345      H1350   1.045       .  S
N1348      H1351   1.046       .  S
N1348      H1352   1.045       .  S
C1353      C1358   1.417       .  A
C1353      H1360   1.083       .  S
C1354      C1355   1.429       .  A
C1355      C1356   1.418       .  A
C1355      N1362   1.439       .  S
C1356      C1357   1.411   1_655  A
C1356      H1361   1.080       .  S
C1358      N1359   1.431       .  S
N1359      H1363   1.046       .  S
N1359      H1364   1.046       .  S
N1362      H1365   1.046       .  S
N1362      H1366   1.046       .  S
C1367      C1368   1.393   1_655  A
C1367      C1372   1.414       .  A
C1367      H1374   1.084       .  S
C1369      C1370   1.415       .  A
C1369      N1376   1.433       .  S
C1370      H1375   1.083       .  S
C1371      C1372   1.447       .  A
C1372      N1373   1.433       .  S
N1373      H1377   1.046       .  S
N1373      H1378   1.046       .  S
N1376      H1379   1.046       .  S
N1376      H1380   1.046       .  S
C1381      C1382   1.420       .  A
C1381      C1386   1.414       .  A
C1381      H1388   1.083       .  S
C1382      C1383   1.413       .  A
C1383      C1384   1.412       .  A
C1383      N1390   1.432       .  S
C1384      C1385   1.429       .  A
C1384      H1389   1.083       .  S
C1385      C1386   1.418       .  A
C1386      N1387   1.431       .  S
N1387      H1391   1.045       .  S
N1387      H1392   1.045       .  S
N1390      H1393   1.045       .  S
N1390      H1394   1.045       .  S
C1395      C1396   1.428       .  A
C1395      C1400   1.423       .  A
C1395      H1402   1.079       .  S
C1396      C1397   1.421       .  A
C1397      C1398   1.411       .  A
C1397      N1404   1.428       .  S
C1398      C1399   1.407       .  A
C1398      H1403   1.084       .  S
C1399      C1400   1.412       .  A
C1400      N1401   1.438       .  S
N1401      H1405   1.046       .  S
N1401      H1406   1.045       .  S
N1404      H1407   1.041       .  S
N1404      H1408   1.046       .  S
C1409      C1410   1.427       .  A
C1409      C1414   1.418       .  A
C1409      H1416   1.079       .  S
C1410      C1411   1.417       .  A
C1410      C1728   1.583   1_545  S
C1411      C1412   1.412       .  A
C1411      N1418   1.432       .  S
C1412      C1413   1.420       .  A
C1412      H1417   1.083       .  S
C1413      C1414   1.408       .  A
C1414      N1415   1.437       .  S
N1415      H1419   1.046       .  S
N1415      H1420   1.046       .  S
N1418      H1421   1.046       .  S
N1418      H1422   1.046       .  S
C1423      C1424   1.397       .  A
C1423      C1428   1.413       .  A
C1423      H1430   1.084       .  S
C1424      C1425   1.420       .  A
C1425      C1426   1.420       .  A
C1425      N1432   1.438       .  S
C1426      C1427   1.416       .  A
C1426      H1431   1.083       .  S
C1427      C1428   1.441       .  A
C1428      N1429   1.433       .  S
N1429      H1433   1.046       .  S
N1429      H1434   1.046       .  S
N1432      H1435   1.046       .  S
N1432      H1436   1.046       .  S
C1437      C1438   1.405       .  A
C1437      C1442   1.396       .  A
C1437      H1444   1.085       .  S
C1438      C1439   1.411       .  A
C1439      C1440   1.401       .  A
C1439      N1446   1.435       .  S
C1440      C1441   1.403       .  A
C1440      H1445   1.084       .  S
C1441      C1442   1.401       .  A
C1442      N1443   1.433       .  S
N1443      H1447   1.045       .  S
N1443      H1448   1.046       .  S
N1446      H1449   1.045       .  S
N1446      H1450   1.045       .  S
C1451      C1452   1.397       .  A
C1451      C1456   1.389       .  A
C1451      H1458   1.084       .  S
C1452      C1453   1.417       .  A
C1453      C1454   1.395       .  A
C1453      N1460   1.436       .  S
C1454      C1455   1.390       .  A
C1454      H1459   1.084       .  S
C1455      C1456   1.406       .  A
C1456      N1457   1.433       .  S
N1457      H1461   1.046       .  S
N1457      H1462   1.046       .  S
N1460      H1463   1.045       .  S
N1460      H1464   1.045       .  S
C1465      C1466   1.399       .  A
C1465      C1470   1.392       .  A
C1465      H1472   1.083       .  S
C1466      C1467   1.398       .  A
C1467      C1468   1.402       .  A
C1467      N1474   1.432       .  S
C1468      C1469   1.416       .  A
C1468      H1473   1.082       .  S
C1469      C1470   1.409       .  A
C1470      N1471   1.434       .  S
N1471      H1475   1.046       .  S
N1471      H1476   1.044       .  S
N1474      H1477   1.046       .  S
N1474      H1478   1.046       .  S
C1479      C1480   1.403       .  A
C1479      C1484   1.401       .  A
C1479      H1486   1.084       .  S
C1480      C1481   1.404       .  A
C1481      C1482   1.386       .  A
C1481      N1488   1.427       .  S
C1482      C1483   1.395       .  A
C1482      H1487   1.084       .  S
C1483      C1484   1.401       .  A
C1484      N1485   1.428   1_655  S
N1485      H1489   1.045       .  S
N1485      H1490   1.040   1_455  S
N1488      H1491   1.045       .  S
N1488      H1492   1.043       .  S
C1493      C1494   1.409       .  A
C1493      C1498   1.414       .  A
C1493      H1500   1.084       .  S
C1494      C1495   1.415       .  A
C1495      C1496   1.423       .  A
C1495      N1502   1.433       .  S
C1496      C1497   1.427       .  A
C1496      H1501   1.077       .  S
C1497      C1498   1.441       .  A
C1498      N1499   1.430       .  S
N1499      H1503   1.044       .  S
N1499      H1504   1.038       .  S
N1502      H1505   1.045       .  S
N1502      H1506   1.044       .  S
C1507      C1508   1.411       .  A
C1507      C1512   1.432       .  A
C1507      H1514   1.083       .  S
C1508      C1509   1.419       .  A
C1509      C1510   1.417       .  A
C1509      N1516   1.429       .  S
C1510      C1511   1.414       .  A
C1510      H1515   1.084       .  S
C1511      C1512   1.436       .  A
C1512      N1513   1.434       .  S
N1513      H1517   1.045       .  S
N1513      H1518   1.040       .  S
N1516      H1519   1.043       .  S
N1516      H1520   1.046       .  S
C1521      C1522   1.431       .  A
C1521      C1526   1.418       .  A
C1521      H1528   1.078       .  S
C1522      C1523   1.420       .  A
C1523      C1524   1.404       .  A
C1523      N1530   1.427       .  S
C1524      C1525   1.401       .  A
C1524      H1529   1.073       .  S
C1525      C1526   1.405       .  A
C1526      N1527   1.437       .  S
N1527      H1531   1.044       .  S
N1527      H1532   1.043       .  S
N1530      H1533   1.046       .  S
N1530      H1534   1.045       .  S
C1535      C1536   1.414       .  A
C1535      C1540   1.410       .  A
C1535      H1542   1.083       .  S
C1536      C1537   1.413       .  A
C1537      C1538   1.407       .  A
C1537      N1544   1.428       .  S
C1538      C1539   1.423       .  A
C1538      H1543   1.084       .  S
C1539      C1540   1.423       .  A
C1539      C1726   1.573   1_545  S
C1540      N1541   1.432       .  S
N1541      H1545   1.045       .  S
N1541      H1546   1.045   1_545  S
N1544      H1547   1.045       .  S
N1544      H1548   1.045       .  S
O1549      C1560   1.305       .  A
O1549     Eu1585   2.532       .  S
O1550      C1561   1.313       .  A
O1550     Eu1584   2.579       .  S
O1551      C1562   1.277       .  A
O1551     Eu1557   2.392       .  S
O1552      C1563   1.291       .  A
O1552     Eu1557   2.459       .  S
O1553      C1563   1.274       .  A
O1553     Eu1587   2.369       .  S
O1554      C1562   1.295       .  A
O1554     Eu1586   2.479       .  S
O1555      C1561   1.285       .  A
O1555     Eu1557   2.420       .  S
O1556      C1560   1.290       .  A
O1556     Eu1557   2.449       .  S
Eu1557     O1567   2.317       .  S
Eu1557     O1559   2.368       .  S
Eu1557     O1558   2.331       .  S
Eu1557     O1565   2.354       .  S
O1558     Eu1587   2.341       .  S
O1558     Eu1584   2.365       .  S
O1559     Eu1585   2.390       .  S
O1559     Eu1586   2.346       .  S
C1560      C2052   1.518       .  S
C1561      C1929   1.524       .  S
C1562      C1957   1.453       .  S
C1563      C1968   1.450       .  S
H1564      O1565   0.964       .  S
O1565     Eu1586   2.331       .  S
O1565     Eu1584   2.365       .  S
H1566      O1567   0.965       .  S
O1567     Eu1585   2.383       .  S
O1567     Eu1587   2.359       .  S
O1568      C1591   1.308       .  A
O1568     Eu1584   2.541       .  S
O1569      C1592   1.308       .  A
O1569     Eu1585   2.548       .  S
O1570      C1593   1.285       .  A
O1570     Eu1586   2.423       .  S
O1571      C1594   1.291       .  A
O1571     Eu1587   2.451       .  S
O1572      C1595   1.291       .  A
O1572     Eu1587   2.460       .  S
O1573      C1596   1.291       .  A
O1573     Eu1586   2.456       .  S
O1574      C1597   1.293       .  A
O1574     Eu1588   2.461       .  S
O1575      C1598   1.283       .  A
O1575     Eu1588   2.434       .  S
O1576      C1597   1.282       .  A
O1576     Eu1586   2.416       .  S
O1577      C1598   1.285       .  A
O1577     Eu1587   2.424       .  S
O1578      C1593   1.309       .  A
O1578     Eu1584   2.560       .  S
O1579      C1596   1.315       .  A
O1579     Eu1585   2.592       .  S
O1580      C1595   1.312       .  A
O1580     Eu1585   2.574       .  S
O1581      C1594   1.309       .  A
O1581     Eu1584   2.556       .  S
O1582      C1591   1.290       .  A
O1582     Eu1588   2.448       .  S
O1583      C1592   1.291       .  A
O1583     Eu1588   2.452       .  S
Eu1584     O1602   2.401       .  S
Eu1584     O1590   2.385       .  S
Eu1585     O1589   2.378       .  S
Eu1585     O1600   2.359       .  S
Eu1586     O1600   2.348       .  S
Eu1586     O1590   2.366       .  S
Eu1587     O1589   2.328       .  S
Eu1587     O1602   2.343       .  S
Eu1588     O1589   2.351       .  S
Eu1588     O1600   2.332       .  S
Eu1588     O1602   2.365       .  S
Eu1588     O1590   2.350       .  S
C1591      C1940   1.508       .  S
C1592      C2041   1.515       .  S
C1593      C1898   1.521       .  S
C1594      C1915   1.522       .  S
C1595      C2010   1.521       .  S
C1596      C2024   1.527       .  S
C1597      C1996   1.464       .  S
C1598      C1982   1.453       .  S
H1599      O1600   0.961       .  S
H1601      O1602   0.966       .  S
N1603      C1608   1.341       .  A
N1603      H1635   1.046       .  S
N1604      C1612   1.341       .  A
N1605      C1610   1.350       .  A
N1605      H1636   1.041   1_655  S
N1606      C1614   1.342       .  A
C1607      C1615   1.379       .  A
C1607      C1623   1.392       .  A
C1608      C1624   1.400   1_455  A
C1608      C1616   1.389       .  A
C1609      C1617   1.373       .  A
C1609      C1626   1.383       .  A
C1610      C1625   1.420       .  A
C1610      C1618   1.394       .  A
C1611      C1623   1.400   1_545  A
C1611      C1619   1.386       .  A
C1612      C1626   1.399       .  A
C1612      C1620   1.387       .  A
C1613      C1621   1.392       .  A
C1613      C1624   1.413       .  A
C1614      C1622   1.382       .  A
C1614      C1625   1.399       .  A
C1615      H1627   1.080       .  S
C1616      H1628   1.081   1_455  S
C1617      H1629   1.078       .  S
C1618      H1630   1.071       .  S
C1619      H1631   1.077       .  S
C1620      H1632   1.083       .  S
C1621      H1633   1.081       .  S
C1622      H1634   1.083       .  S
C1623      C1985   1.484       .  S
C1624      C1999   1.465       .  S
C1625      C1954   1.473       .  S
C1626      C1971   1.453       .  S
O1637      C1648   1.309       .  A
O1638      C1649   1.307   1_455  A
O1638     Eu1672   2.540   1_455  S
O1639      C1650   1.270       .  A
O1640      C1651   1.281   1_556  A
O1640     Eu1645   2.424       .  S
O1641      C1651   1.286       .  A
O1641     Eu1675   2.457   1_564  S
O1642      C1650   1.294       .  A
O1642     Eu1674   2.478       .  S
O1643      C1649   1.289       .  A
O1643     Eu1645   2.456   1_554  S
O1644      C1648   1.285       .  A
O1644     Eu1645   2.423       .  S
Eu1645     O1655   2.343       .  S
Eu1645     O1646   2.319   1_556  S
O1646     Eu1675   2.327   1_564  S
O1646     Eu1672   2.370       .  S
O1647     Eu1674   2.338       .  S
C1648      C1884   1.496   1_655  S
C1649      C1761   1.509       .  S
C1650      C1786   1.458       .  S
C1651      C1800   1.464       .  S
H1652      O1653   0.967       .  S
O1653     Eu1674   2.348   1_554  S
H1654      O1655   0.966       .  S
O1655     Eu1675   2.343   1_565  S
O1656      C1679   1.308       .  A
O1657      C1680   1.309       .  A
O1657     Eu1673   2.556       .  S
O1658      C1681   1.283       .  A
O1658     Eu1674   2.407   1_554  S
O1659      C1682   1.282       .  A
O1659     Eu1675   2.403   1_554  S
O1660      C1683   1.287       .  A
O1661      C1684   1.284       .  A
O1662      C1685   1.278   1_556  A
O1663      C1686   1.277   1_556  A
O1663     Eu1676   2.395   1_655  S
O1664      C1685   1.289       .  A
O1665      C1686   1.286       .  A
O1666      C1681   1.320       .  A
O1667      C1684   1.315       .  A
O1668      C1683   1.310       .  A
O1668     Eu1673   2.558       .  S
O1669      C1682   1.320       .  A
O1669     Eu1672   2.610   1_545  S
O1670      C1679   1.284       .  A
O1670     Eu1676   2.424   1_554  S
O1671      C1680   1.282   1_455  A
O1671     Eu1676   2.413       .  S
Eu1673     O1677   2.388       .  S
Eu1676     O1677   2.344   1_455  S
Eu1676     O1690   2.341   1_456  S
C1679      C1775   1.498       .  S
C1680      C1870   1.514       .  S
C1681      C1730   1.526       .  S
C1682      C1744   1.521   1_545  S
C1683      C1842   1.501       .  S
C1684      C1859   1.518       .  S
C1685      C1828   1.455       .  S
C1686      C1814   1.445       .  S
H1687      O1688   0.966       .  S
H1689      O1690   0.962       .  S
N1691      C1696   1.346       .  A
N1691      C1695   1.348       .  A
N1691      H1723   1.040       .  S
N1692      C1699   1.336       .  A
N1692      C1700   1.338       .  A
N1693      C1698   1.339       .  A
N1693      C1697   1.348       .  A
N1693      H1724   1.044       .  S
N1694      C1701   1.344       .  A
N1694      C1702   1.345       .  A
C1695      C1703   1.388       .  A
C1695      C1711   1.409       .  A
C1696      C1712   1.405       .  A
C1696      C1704   1.386       .  A
C1697      C1705   1.381       .  A
C1697      C1714   1.392       .  A
C1698      C1713   1.406       .  A
C1698      C1706   1.395       .  A
C1699      C1711   1.390       .  A
C1699      C1707   1.385       .  A
C1700      C1714   1.382       .  A
C1700      C1708   1.373       .  A
C1701      C1709   1.379       .  A
C1701      C1712   1.399       .  A
C1702      C1710   1.381       .  A
C1702      C1713   1.396       .  A
C1703      C1704   1.375       .  A
C1703      H1715   1.083       .  S
C1704      H1716   1.080       .  S
C1705      C1706   1.366       .  A
C1705      H1717   1.082       .  S
C1706      H1718   1.080       .  S
C1707      C1708   1.376       .  A
C1707      H1719   1.078       .  S
C1708      H1720   1.079       .  S
C1709      C1710   1.365       .  A
C1709      H1721   1.073       .  S
C1710      H1722   1.082       .  S
C1711      C1789   1.497       .  S
C1712      C1803   1.475       .  S
C1713      C1817   1.459       .  S
C1714      C1831   1.463       .  S
C1725      C2013   1.608       .  S
C1726      C1733   1.602       .  S
C1726      C1747   1.599       .  S
C1726      C2038   1.597       .  S
C1727      C1873   1.583       .  S
C1727      C1887   1.590   1_455  S
C1727      C1901   1.580   1_455  S
C1728      C1943   1.586       .  S
C1729      C1730   1.395       .  A
C1729      C1734   1.418       .  A
C1729      H1736   1.084       .  S
C1731      C1732   1.416       .  A
C1731      N1738   1.433       .  S
C1732      H1737   1.079       .  S
C1733      C1734   1.432       .  A
C1734      N1735   1.421       .  S
N1735      H1739   1.039       .  S
N1735      H1740   1.039   1_565  S
N1738      H1741   1.046       .  S
N1738      H1742   1.046       .  S
C1743      C1744   1.395   1_545  A
C1744      C1745   1.425       .  A
C1745      C1746   1.411       .  A
C1745      N1752   1.432       .  S
C1746      C1747   1.406       .  A
C1746      H1751   1.081       .  S
C1748      N1749   1.434       .  S
N1749      H1754   1.046       .  S
N1752      H1755   1.046       .  S
N1752      H1756   1.043       .  S
C1757      C1762   1.407       .  A
C1757      H1764   1.072       .  S
C1758      C1759   1.428       .  A
C1759      C1760   1.421       .  A
C1759      N1766   1.436       .  S
C1760      C1761   1.411       .  A
C1760      H1765   1.083       .  S
C1762      N1763   1.433       .  S
N1763      H1767   1.044       .  S
N1763      H1768   1.046       .  S
N1766      H1769   1.044       .  S
N1766      H1770   1.045       .  S
C1771      C1772   1.430       .  A
C1771      C1776   1.403       .  A
C1771      H1778   1.074       .  S
C1773      C1774   1.423       .  A
C1773      N1780   1.437       .  S
C1774      H1779   1.084       .  S
C1775      C1776   1.400   1_455  A
C1776      N1777   1.432       .  S
N1777      H1781   1.045       .  S
N1777      H1782   1.044       .  S
N1780      H1783   1.043       .  S
N1780      H1784   1.045       .  S
C1785      C1786   1.390       .  A
C1785      C1790   1.397   1_556  A
C1785      H1792   1.084       .  S
C1786      C1787   1.411   1_556  A
C1787      C1788   1.389       .  A
C1787      N1794   1.433       .  S
C1788      C1789   1.401       .  A
C1788      H1793   1.075       .  S
C1789      C1790   1.424       .  A
C1790      N1791   1.432       .  S
N1791      H1795   1.046   1_554  S
N1791      H1796   1.046       .  S
N1794      H1797   1.043       .  S
N1794      H1798   1.046       .  S
C1799      C1800   1.397       .  A
C1799      C1804   1.400       .  A
C1799      H1806   1.084   1_554  S
C1800      C1801   1.413       .  A
C1801      C1802   1.392       .  A
C1801      N1808   1.428       .  S
C1802      C1803   1.387       .  A
C1802      H1807   1.084       .  S
C1803      C1804   1.419       .  A
C1804      N1805   1.430       .  S
N1805      H1809   1.039       .  S
N1805      H1810   1.045       .  S
N1808      H1811   1.041       .  S
N1808      H1812   1.039       .  S
C1813      C1814   1.404       .  A
C1813      C1818   1.385       .  A
C1813      H1820   1.082       .  S
C1814      C1815   1.402       .  A
C1815      C1816   1.396       .  A
C1815      N1822   1.432   1_554  S
C1816      C1817   1.406       .  A
C1816      H1821   1.084       .  S
C1817      C1818   1.394       .  A
C1818      N1819   1.433       .  S
N1819      H1823   1.045       .  S
N1819      H1824   1.044       .  S
N1822      H1825   1.046   1_556  S
N1822      H1826   1.045       .  S
C1827      C1828   1.397       .  A
C1827      C1832   1.398       .  A
C1827      H1834   1.084   1_554  S
C1828      C1829   1.409       .  A
C1829      C1830   1.390       .  A
C1829      N1836   1.428       .  S
C1830      C1831   1.388       .  A
C1830      H1835   1.085       .  S
C1831      C1832   1.421       .  A
C1832      N1833   1.439       .  S
N1833      H1837   1.046       .  S
N1833      H1838   1.042       .  S
N1836      H1839   1.044       .  S
N1836      H1840   1.042       .  S
C1841      C1842   1.409       .  A
C1841      C1846   1.412       .  A
C1841      H1848   1.084       .  S
C1843      C1844   1.411       .  A
C1843      N1850   1.431       .  S
C1844      H1849   1.081       .  S
C1845      C1846   1.421       .  A
C1846      N1847   1.429       .  S
N1847      H1851   1.045       .  S
N1847      H1852   1.046       .  S
C1855      C1860   1.412       .  A
C1855      H1862   1.080       .  S
C1856      C1857   1.418       .  A
C1857      C1858   1.413       .  A
C1857      N1864   1.432       .  S
C1858      C1859   1.418       .  A
C1858      H1863   1.084       .  S
C1860      N1861   1.431       .  S
N1861      H1865   1.045   1_565  S
N1861      H1866   1.045       .  S
N1864      H1867   1.046       .  S
N1864      H1868   1.045       .  S
C1869      C1874   1.419       .  A
C1869      H1876   1.083       .  S
C1870      C1871   1.426       .  A
C1871      C1872   1.410       .  A
C1871      N1878   1.434       .  S
C1872      C1873   1.410   1_655  A
C1872      H1877   1.080       .  S
C1874      N1875   1.431       .  S
N1875      H1879   1.046       .  S
N1875      H1880   1.046       .  S
N1878      H1881   1.046       .  S
N1878      H1882   1.046       .  S
C1883      C1884   1.396   1_655  A
C1883      C1888   1.416       .  A
C1883      H1890   1.084       .  S
C1885      C1886   1.409       .  A
C1885      N1892   1.432       .  S
C1886      H1891   1.083       .  S
C1887      C1888   1.443       .  A
C1888      N1889   1.432       .  S
N1889      H1893   1.046       .  S
N1889      H1894   1.046       .  S
N1892      H1895   1.046       .  S
N1892      H1896   1.046       .  S
C1897      C1898   1.419       .  A
C1897      C1902   1.411       .  A
C1897      H1904   1.083       .  S
C1898      C1899   1.413       .  A
C1899      C1900   1.413       .  A
C1899      N1906   1.432       .  S
C1900      C1901   1.429       .  A
C1900      H1905   1.083       .  S
C1901      C1902   1.418       .  A
C1902      N1903   1.432       .  S
N1903      H1907   1.045       .  S
N1903      H1908   1.046       .  S
N1906      H1909   1.046       .  S
N1906      H1910   1.044       .  S
C1911      C1912   1.428       .  A
C1911      C1916   1.425       .  A
C1911      H1918   1.079       .  S
C1912      C1913   1.422       .  A
C1913      C1914   1.415       .  A
C1913      N1920   1.427       .  S
C1914      C1915   1.410       .  A
C1914      H1919   1.084       .  S
C1915      C1916   1.414       .  A
C1916      N1917   1.437       .  S
N1917      H1921   1.045       .  S
N1917      H1922   1.046       .  S
N1920      H1923   1.039       .  S
N1920      H1924   1.046       .  S
C1925      C1926   1.428       .  A
C1925      C1930   1.420       .  A
C1925      H1932   1.079       .  S
C1926      C1927   1.416       .  A
C1927      C1928   1.412       .  A
C1927      N1934   1.431       .  S
C1928      C1929   1.421       .  A
C1928      H1933   1.083       .  S
C1929      C1930   1.409       .  A
C1930      N1931   1.437       .  S
N1931      H1935   1.046       .  S
N1931      H1936   1.046       .  S
N1934      H1937   1.046       .  S
N1934      H1938   1.046       .  S
C1939      C1940   1.397       .  A
C1939      C1944   1.411       .  A
C1939      H1946   1.084       .  S
C1940      C1941   1.420       .  A
C1941      C1942   1.416       .  A
C1941      N1948   1.438       .  S
C1942      C1943   1.415       .  A
C1942      H1947   1.082       .  S
C1943      C1944   1.440       .  A
C1944      N1945   1.433       .  S
N1945      H1949   1.046       .  S
N1945      H1950   1.046       .  S
N1948      H1951   1.046       .  S
N1948      H1952   1.046       .  S
C1953      C1954   1.403       .  A
C1953      C1958   1.397       .  A
C1953      H1960   1.084       .  S
C1954      C1955   1.410       .  A
C1955      C1956   1.396       .  A
C1955      N1962   1.435       .  S
C1956      C1957   1.402       .  A
C1956      H1961   1.084       .  S
C1957      C1958   1.402       .  A
C1958      N1959   1.432       .  S
N1959      H1963   1.045       .  S
N1959      H1964   1.046       .  S
N1962      H1965   1.045       .  S
N1962      H1966   1.045       .  S
C1967      C1968   1.396       .  A
C1967      C1972   1.389       .  A
C1967      H1974   1.084       .  S
C1968      C1969   1.415       .  A
C1969      C1970   1.392       .  A
C1969      N1976   1.435       .  S
C1970      C1971   1.389       .  A
C1970      H1975   1.084       .  S
C1971      C1972   1.406       .  A
C1972      N1973   1.433       .  S
N1973      H1977   1.046       .  S
N1973      H1978   1.046       .  S
N1976      H1979   1.044       .  S
N1976      H1980   1.045       .  S
C1981      C1982   1.397       .  A
C1981      C1986   1.389       .  A
C1981      H1988   1.083       .  S
C1982      C1983   1.397       .  A
C1983      C1984   1.401       .  A
C1983      N1990   1.432       .  S
C1984      C1985   1.415       .  A
C1984      H1989   1.082       .  S
C1985      C1986   1.410       .  A
C1986      N1987   1.434       .  S
N1987      H1991   1.046       .  S
N1987      H1992   1.044       .  S
N1990      H1993   1.046       .  S
N1990      H1994   1.046       .  S
C1995      C1996   1.404       .  A
C1995      C2000   1.403       .  A
C1995      H2002   1.084       .  S
C1996      C1997   1.407       .  A
C1997      C1998   1.387       .  A
C1997      N2004   1.427       .  S
C1998      C1999   1.393       .  A
C1998      H2003   1.085       .  S
C1999      C2000   1.403       .  A
C2000      N2001   1.429   1_655  S
N2001      H2005   1.044       .  S
N2001      H2006   1.043       .  S
N2004      H2007   1.046       .  S
N2004      H2008   1.044       .  S
C2009      C2010   1.407       .  A
C2009      C2014   1.411       .  A
C2009      H2016   1.084       .  S
C2010      C2011   1.417       .  A
C2011      C2012   1.422       .  A
C2011      N2018   1.433       .  S
C2012      C2013   1.428       .  A
C2012      H2017   1.078       .  S
C2013      C2014   1.436       .  A
C2014      N2015   1.429       .  S
N2015      H2019   1.043       .  S
N2015      H2020   1.039       .  S
N2018      H2021   1.046       .  S
N2018      H2022   1.044       .  S
C2023      C2024   1.410       .  A
C2023      C2028   1.430       .  A
C2023      H2030   1.083       .  S
C2024      C2025   1.416       .  A
C2025      C2026   1.418       .  A
C2025      N2032   1.429       .  S
C2026      C2027   1.417       .  A
C2026      H2031   1.084       .  S
C2027      C2028   1.433       .  A
C2028      N2029   1.431       .  S
N2029      H2033   1.045       .  S
N2029      H2034   1.040       .  S
N2032      H2035   1.041       .  S
N2032      H2036   1.046       .  S
C2037      C2038   1.430       .  A
C2037      C2042   1.424       .  A
C2037      H2044   1.079       .  S
C2038      C2039   1.421       .  A
C2039      C2040   1.407       .  A
C2039      N2046   1.426       .  S
C2040      C2041   1.403       .  A
C2040      H2045   1.072       .  S
C2041      C2042   1.408       .  A
C2042      N2043   1.436       .  S
N2043      H2047   1.043       .  S
N2043      H2048   1.042       .  S
N2046      H2049   1.046       .  S
N2046      H2050   1.044       .  S
C2051      C2052   1.416       .  A
C2051      C2056   1.412       .  A
C2051      H2058   1.083       .  S
C2052      C2053   1.415       .  A
C2053      C2054   1.408       .  A
C2053      N2060   1.430       .  S
C2054      C2055   1.422       .  A
C2054      H2059   1.084       .  S
C2055      C2056   1.422       .  A
C2056      N2057   1.432       .  S
N2057      H2061   1.046       .  S
N2057      H2062   1.044       .  S
N2060      H2063   1.045       .  S
N2060      H2064   1.045       .  S
