geometry optimzed in LAMMPS
_audit_creation_date              2020-12-01 
_audit_creation_method            'lammps2cif' 
_symmetry_space_group_name_H-M    'P1' 
_symmetry_Int_Tables_number       1 
_symmetry_cell_setting            triclinic 
loop_ 
_symmetry_equiv_pos_as_xyz 
  x,y,z 
_cell_length_a                    72.55928276 
_cell_length_b                    72.54543924789007 
_cell_length_c                    72.42849942090335 
_cell_angle_alpha                 89.93827767919575 
_cell_angle_beta                  89.33787287648974 
_cell_angle_gamma                 89.95559415163741 
loop_ 
_atom_site_label 
_atom_site_type_symbol 
_atom_site_fract_x 
_atom_site_fract_y 
_atom_site_fract_z 
_atom_site_charge 
C1          C  0.10459472  0.10616363  0.10428812     0.86700
C2          C  0.09565340  0.11941370  0.11845197    -0.53600
C3          C  0.10761042  0.12851444  0.12960233     0.09600
C4          C  0.12800902  0.12411883  0.12499316     0.20500
C5          C  0.11769916  0.11928081  0.09344825    -0.54300
C6          C  0.13018325  0.12868952  0.10412195     0.09700
C7          C  0.11739119  0.09377063  0.11554642    -0.53800
C8          C  0.12957486  0.10289558  0.12641244     0.10300
H9          H  0.08113289  0.12271790  0.11883223     0.14800
H10         H  0.13794320  0.13142786  0.13391346     0.00500
H11         H  0.11687888  0.12119825  0.07861704     0.15100
H12         H  0.11673113  0.07882455  0.11502492     0.14900
C13         C  0.91517329  0.10574204  0.91334664     0.86700
C14         C  0.90096905  0.09581945  0.90102674    -0.53600
C15         C  0.89289658  0.10681227  0.88803836     0.09600
C16         C  0.90029927  0.12669845  0.88809161     0.20500
C17         C  0.92900205  0.11321573  0.89902923    -0.54300
C18         C  0.92165923  0.12480292  0.88639599     0.09700
C19         C  0.90521799  0.12297902  0.92086485    -0.53800
C20         C  0.89654051  0.13375309  0.90794823     0.10300
H21         H  0.89788913  0.08122953  0.90191561     0.14800
H22         H  0.89383451  0.13475744  0.87703653     0.00500
H23         H  0.94365179  0.11021467  0.89912960     0.15100
H24         H  0.90542976  0.12640621  0.93542658     0.14900
C25         C  0.93361972  0.91700096  0.11348015     0.86700
C26         C  0.92345361  0.93017608  0.12684671    -0.53600
C27         C  0.91080714  0.92201410  0.13829226     0.09600
C28         C  0.90941389  0.90093104  0.13540043     0.20500
C29         C  0.94165272  0.90170143  0.12572886    -0.54300
C30         C  0.92927468  0.89336450  0.13752772     0.09700
C31         C  0.91739410  0.90773785  0.10340593    -0.53800
C32         C  0.90505947  0.89875899  0.11466412     0.10300
H33         H  0.92545512  0.94499785  0.12668250     0.14800
H34         H  0.89915496  0.89434550  0.14474434     0.00500
H35         H  0.95609529  0.89781527  0.12504266     0.15100
H36         H  0.91517327  0.90862933  0.08868094     0.14900
C37         C  0.10724470  0.92278045  0.92984677     0.86700
C38         C  0.09494202  0.90881155  0.91940021    -0.53600
C39         C  0.10447024  0.89611433  0.90880493     0.09600
C40         C  0.12563871  0.89856625  0.91006148     0.20500
C41         C  0.11984890  0.90992718  0.94107062    -0.54300
C42         C  0.12974823  0.89751277  0.93091406     0.09700
C43         C  0.11977506  0.93118924  0.91494100    -0.53800
C44         C  0.12939863  0.91878673  0.90454359     0.10300
H45         H  0.08001772  0.90891493  0.92051476     0.14800
H46         H  0.13363894  0.88853946  0.90163532     0.00500
H47         H  0.12008052  0.90946156  0.95595454     0.15100
H48         H  0.12091368  0.94596274  0.91277095     0.14900
C49         C  0.99174116  0.02677653  0.00030236     0.86700
C50         C  0.00280979  0.04048198  0.01206494    -0.53600
C51         C  0.01625780  0.03285455  0.02268551     0.09600
C52         C  0.01736842  0.01165827  0.02062873     0.20500
C53         C  0.00705992  0.01682774  0.98918832    -0.54300
C54         C  0.02003165  0.00835732  0.99973558     0.09700
C55         C  0.98455015  0.01227428  0.01399259    -0.53800
C56         C  0.99765783  0.00448492  0.02508915     0.10300
H57         H  0.00041254  0.05521026  0.01175600     0.14800
H58         H  0.02850245  0.00559447  0.02897426     0.00500
H59         H  0.00794354  0.01653991  0.97425058     0.15100
H60         H  0.97005942  0.00861010  0.01490456     0.14900
N61         N  0.73390983  0.80778742  0.52564839    -0.27100
N62         N  0.75097875  0.81239906  0.52105194    -0.35000
C63         C  0.75180622  0.83056055  0.51780930     0.01200
C64         C  0.73448129  0.83786944  0.52053897     0.07200
C65         C  0.72337222  0.82312856  0.52560042    -0.05900
H66         H  0.76434445  0.83807955  0.51472444     0.07900
H67         H  0.70899344  0.82363849  0.52968168     0.09100
Cu68       Cu  0.77323085  0.79487727  0.52182889     0.44200
Cu69       Cu  0.72688461  0.78093157  0.53317024     0.42000
Cu70       Cu  0.76641483  0.74865329  0.53640211     0.43900
N71         N  0.79465534  0.77663747  0.52502131    -0.34500
N72         N  0.79239728  0.75935174  0.53029389    -0.28800
C73         C  0.80905818  0.75117033  0.53105326    -0.04900
C74         C  0.82233013  0.76405733  0.52603582     0.07400
C75         C  0.81266752  0.78002898  0.52239945     0.01100
H76         H  0.81134652  0.73697539  0.53500850     0.08800
H77         H  0.81833259  0.79321493  0.51826501     0.07900
N78         N  0.73905836  0.74185285  0.54218656    -0.36000
N79         N  0.72489937  0.75332610  0.54103331    -0.28100
C80         C  0.70949535  0.74447209  0.54659423    -0.03400
C81         C  0.71416973  0.72664467  0.55150328     0.05200
C82         C  0.73298853  0.72546816  0.54848730     0.03300
H83         H  0.69597988  0.75072889  0.54756985     0.08400
H84         H  0.74172439  0.71369263  0.55115540     0.07300
N85         N  0.52714165  0.75401210  0.80083946    -0.27100
N86         N  0.51591259  0.76826233  0.80263189    -0.35000
C87         C  0.51196398  0.77087188  0.82058221     0.01200
C88         C  0.52113988  0.75763302  0.83060311     0.07200
C89         C  0.53068048  0.74713711  0.81771204    -0.05900
H90         H  0.50374495  0.78212329  0.82600454     0.07900
H91         H  0.53992864  0.73577423  0.82042934     0.09100
Cu92       Cu  0.50870486  0.78530625  0.78112691     0.44200
Cu93       Cu  0.53765185  0.74574225  0.77540521     0.42000
Cu94       Cu  0.52982338  0.77775805  0.73677435     0.43900
N95         N  0.50854649  0.80466852  0.76031079    -0.34500
N96         N  0.51681752  0.80240542  0.74411830    -0.28800
C97         C  0.51677883  0.81865619  0.73505964    -0.04900
C98         C  0.50806516  0.83165328  0.74618483     0.07400
C99         C  0.50303401  0.82225255  0.76202121     0.01100
H100        H  0.52361485  0.82112147  0.72193644     0.08800
H101        H  0.49715333  0.82812433  0.77449076     0.07900
N102        N  0.54170829  0.75165103  0.73409950    -0.36000
N103        N  0.54454620  0.74023255  0.74806449    -0.28100
C104        C  0.55172548  0.72440055  0.74152505    -0.03400
C105        C  0.55349031  0.72586967  0.72256598     0.05200
C106        C  0.54706739  0.74331979  0.71831382     0.03300
H107        H  0.55512397  0.71256471  0.74992916     0.08400
H108        H  0.54600979  0.74936103  0.70470448     0.07300
N109        N  0.49986528  0.80809607  0.27851202    -0.27100
N110        N  0.50848533  0.80898981  0.26235241    -0.35000
C111        C  0.51242663  0.82662498  0.25835865     0.01200
C112        C  0.50605940  0.83744645  0.27267996     0.07200
C113        C  0.49813336  0.82534406  0.28529015    -0.05900
H114        H  0.51891691  0.83128077  0.24566511     0.07900
H115        H  0.49121925  0.82885277  0.29812391     0.09100
Cu116      Cu  0.51258807  0.78682588  0.24509915     0.44200
Cu117      Cu  0.48998570  0.78319236  0.28930032     0.42000
Cu118      Cu  0.48859448  0.74525783  0.25520125     0.43900
N119        N  0.51017123  0.76574133  0.22633157    -0.34500
N120        N  0.50061513  0.75056223  0.22953836    -0.28800
C121        C  0.49927968  0.74102304  0.21364583    -0.04900
C122        C  0.50854235  0.75076505  0.19992493     0.07400
C123        C  0.51523547  0.76631256  0.20847865     0.01100
H124        H  0.49129572  0.72856206  0.21196848     0.08800
H125        H  0.52202934  0.77789412  0.20189082     0.07900
N126        N  0.47993535  0.74307325  0.28260831    -0.36000
N127        N  0.48088744  0.75640143  0.29504573    -0.28100
C128        C  0.47526815  0.74967231  0.31152899    -0.03400
C129        C  0.47048226  0.73130231  0.30934969     0.05200
C130        C  0.47353687  0.72768176  0.29081362     0.03300
H131        H  0.47496449  0.75749555  0.32423701     0.08400
H132        H  0.47155180  0.71467082  0.28382888     0.07300
N133        N  0.80841223  0.49681262  0.28997962    -0.27100
N134        N  0.81625716  0.49608589  0.27346575    -0.35000
C135        C  0.83435019  0.49916393  0.27499037     0.01200
C136        C  0.83815733  0.50211142  0.29336321     0.07200
C137        C  0.82140640  0.50048414  0.30258335    -0.05900
H138        H  0.84407983  0.49907423  0.26355315     0.07900
H139        H  0.81888852  0.50160793  0.31728895     0.09100
Cu140      Cu  0.80230140  0.49128153  0.24950760     0.44200
Cu141      Cu  0.78069229  0.49135548  0.29382101     0.42000
Cu142      Cu  0.75396559  0.48209113  0.25164530     0.43900
N143        N  0.78614762  0.48977126  0.22654251    -0.34500
N144        N  0.76818436  0.48681619  0.22707331    -0.28800
C145        C  0.76160246  0.48820994  0.20982537    -0.04900
C146        C  0.77625945  0.49213727  0.19808564     0.07400
C147        C  0.79155689  0.49305863  0.20909221     0.01100
H148        H  0.74724061  0.48694628  0.20618848     0.08800
H149        H  0.80547044  0.49654547  0.20484956     0.07900
N150        N  0.74439574  0.47790946  0.27845794    -0.36000
N151        N  0.75395773  0.48152524  0.29348828    -0.28100
C152        C  0.74392964  0.47677015  0.30843852    -0.03400
C153        C  0.72731435  0.46980649  0.30257754     0.05200
C154        C  0.72800811  0.47073196  0.28351969     0.03300
H155        H  0.74851848  0.47804193  0.32253968     0.08400
H156        H  0.71749907  0.46628358  0.27403469     0.07300
N157        N  0.53773183  0.76749819  0.99721422    -0.36400
N158        N  0.49823580  0.77027719  0.99478753    -0.57000
N159        N  0.49535628  0.77065593  0.03464255    -0.36400
N160        N  0.53505861  0.76911335  0.03712533    -0.57000
C161        C  0.53562241  0.77052894  0.97895997     0.27100
C162        C  0.55516352  0.77232840  0.00146478     0.27100
C163        C  0.47835329  0.77686780  0.03031808     0.27100
C164        C  0.49757888  0.77311782  0.05295798     0.27100
C165        C  0.50203951  0.76500960  0.97730603     0.35800
C166        C  0.47976771  0.76946817  0.99684395     0.35800
C167        C  0.55323031  0.76560189  0.03498737     0.35800
C168        C  0.53069839  0.76471172  0.05474641     0.35800
C169        C  0.55193428  0.77719090  0.97139618    -0.21700
C170        C  0.56425252  0.77850921  0.98567045    -0.21700
C171        C  0.46960220  0.78331524  0.04617731    -0.21700
C172        C  0.48167954  0.78071155  0.06053967    -0.21700
C173        C  0.48590423  0.76075247  0.96817802    -0.22800
C174        C  0.47173472  0.76376717  0.98054296    -0.22800
C175        C  0.56054997  0.75922907  0.05138261    -0.22800
C176        C  0.54622944  0.75859265  0.06392003    -0.22800
C177        C  0.51960221  0.76639590  0.96892247    -0.18100
C178        C  0.56349744  0.76947053  0.01879678    -0.18100
C179        C  0.51318827  0.76745619  0.06299355    -0.18100
C180        C  0.47005415  0.77526079  0.01278343    -0.18100
H181        H  0.55468619  0.78063894  0.95708510     0.14800
H182        H  0.57843971  0.78299179  0.98445877     0.14800
H183        H  0.45575114  0.78876757  0.04737486     0.14800
H184        H  0.47904147  0.78395633  0.07491078     0.14800
H185        H  0.48445399  0.75661719  0.95391364     0.13100
H186        H  0.45718995  0.76217946  0.97779526     0.13100
H187        H  0.57474478  0.75559979  0.05405259     0.13100
H188        H  0.54722130  0.75445293  0.07823611     0.13100
H189        H  0.52855264  0.76031240  0.00567152     0.26300
H190        H  0.50410015  0.76301147  0.02617262     0.26300
N191        N  0.78062277  0.54435225  0.03920705    -0.36400
N192        N  0.77886147  0.55135548  0.00021635    -0.57000
N193        N  0.77977352  0.51172537  0.99328199    -0.36400
N194        N  0.78000752  0.50481103  0.03246226    -0.57000
C195        C  0.77774969  0.56273399  0.03928722     0.27100
C196        C  0.77647101  0.53811524  0.05629878     0.27100
C197        C  0.77460629  0.51798713  0.97653934     0.27100
C198        C  0.77700151  0.49329164  0.99348449     0.27100
C199        C  0.78282270  0.56860971  0.00591111     0.35800
C200        C  0.78044983  0.55147361  0.98164508     0.35800
C201        C  0.78270265  0.50478173  0.05085814     0.35800
C202        C  0.78363274  0.48752794  0.02655736     0.35800
C203        C  0.77188732  0.56834449  0.05666123    -0.21700
C204        C  0.77091293  0.55273647  0.06739944    -0.21700
C205        C  0.76867741  0.50329860  0.96588231    -0.21700
C206        C  0.77033442  0.48767985  0.97654285    -0.21700
C207        C  0.78673526  0.57982651  0.99086720    -0.22800
C208        C  0.78511370  0.56897224  0.97545275    -0.22800
C209        C  0.78781132  0.48734199  0.05674181    -0.22800
C210        C  0.78843843  0.47639301  0.04130693    -0.22800
C211        C  0.78158566  0.57464637  0.02440150    -0.18100
C212        C  0.77931704  0.51994353  0.06259130    -0.18100
C213        C  0.78119280  0.48135257  0.00828653    -0.18100
C214        C  0.77645399  0.53633772  0.97014017    -0.18100
H215        H  0.76881872  0.58224389  0.06116619     0.14800
H216        H  0.76707886  0.55228734  0.08188022     0.14800
H217        H  0.76399053  0.50373071  0.95175453     0.14800
H218        H  0.76703672  0.47378219  0.97228958     0.14800
H219        H  0.79001675  0.59437977  0.99096058     0.13100
H220        H  0.78701126  0.57346608  0.96130233     0.13100
H221        H  0.79057518  0.48292958  0.07072123     0.13100
H222        H  0.79171082  0.46183581  0.04103034     0.13100
H223        H  0.78743007  0.53699577  0.02890507     0.26300
H224        H  0.78681867  0.51920179  0.00315891     0.26300
N225        N  0.73105973  0.78492228  0.03041070    -0.27100
N226        N  0.73092712  0.76890164  0.02170213    -0.35000
C227        C  0.71347365  0.76394458  0.01833762     0.01200
C228        C  0.70195501  0.77745326  0.02517955     0.07200
C229        C  0.71347110  0.79062619  0.03274244    -0.05900
H230        H  0.70944677  0.75116795  0.01183818     0.07900
H231        H  0.70935585  0.80314303  0.03977427     0.09100
Cu232      Cu  0.75388398  0.75297313  0.01652314     0.44200
Cu233      Cu  0.75547581  0.79724111  0.03944634     0.42000
Cu234      Cu  0.79634534  0.76706967  0.03488059     0.43900
N235        N  0.77619071  0.73558278  0.01842086    -0.34500
N236        N  0.79200168  0.74056099  0.02571823    -0.28800
C237        C  0.80260025  0.72551508  0.02800945    -0.04900
C238        C  0.79283600  0.71040174  0.02182829     0.07400
C239        C  0.77621624  0.71729712  0.01581737     0.01100
H240        H  0.81580922  0.72542875  0.03478576     0.08800
H241        H  0.76444533  0.70940737  0.01131614     0.07900
N242        N  0.79676377  0.79364385  0.04496264    -0.36000
N243        N  0.78232414  0.80470053  0.04682895    -0.28100
C244        C  0.78798033  0.82062537  0.05454055    -0.03400
C245        C  0.80675881  0.81932921  0.05762869     0.05200
C246        C  0.81180697  0.80210888  0.05139129     0.03300
H247        H  0.77905439  0.83208551  0.05802363     0.08400
H248        H  0.82540013  0.79599381  0.05184903     0.07300
N249        N  0.81300282  0.55989079  0.74761829    -0.27100
N250        N  0.81780422  0.56215934  0.76500786    -0.35000
C251        C  0.83588387  0.55886700  0.76671110     0.01200
C252        C  0.84294411  0.55424203  0.74959514     0.07200
C253        C  0.82808853  0.55495255  0.73771355    -0.05900
H254        H  0.84319213  0.55894720  0.77964946     0.07900
H255        H  0.82813848  0.55158726  0.72316695     0.09100
Cu256      Cu  0.79941777  0.56660986  0.78632177     0.44200
Cu257      Cu  0.78561281  0.56250264  0.73947745     0.42000
Cu258      Cu  0.75138793  0.56077020  0.77787537     0.43900
N259        N  0.77998861  0.56465502  0.80708722    -0.34500
N260        N  0.76225716  0.56181978  0.80428807    -0.28800
C261        C  0.75372116  0.55958968  0.82076622    -0.04900
C262        C  0.76684665  0.56114129  0.83443009     0.07400
C263        C  0.78328623  0.56430768  0.82525514     0.01100
H264        H  0.73919917  0.55667735  0.82263962     0.08800
H265        H  0.79678988  0.56556214  0.83131019     0.07900
N266        N  0.74491702  0.56377334  0.75012796    -0.36000
N267        N  0.75712973  0.56519002  0.73646830    -0.28100
C268        C  0.74815365  0.56901635  0.72075036    -0.03400
C269        C  0.72942324  0.56989623  0.72462949     0.05200
C270        C  0.72792112  0.56637354  0.74337081     0.03300
H271        H  0.75482446  0.57146122  0.70753923     0.08400
H272        H  0.71540674  0.56627363  0.75163689     0.07300
N273        N  0.27043682  0.80118036  0.50953051    -0.27100
N274        N  0.25409045  0.80298562  0.51752078    -0.35000
C275        C  0.25045189  0.82093997  0.52019569     0.01200
C276        C  0.26526379  0.83104142  0.51363175     0.07200
C277        C  0.27772979  0.81808760  0.50692799    -0.05900
H278        H  0.23768675  0.82628449  0.52591710     0.07900
H279        H  0.29086898  0.82078400  0.50025564     0.09100
Cu280      Cu  0.23678856  0.78106838  0.52256647     0.44200
Cu281      Cu  0.28067181  0.77543326  0.50173078     0.42000
Cu282      Cu  0.24866416  0.73570512  0.50555934     0.43900
N283        N  0.21875852  0.75922429  0.52250346    -0.34500
N284        N  0.22251944  0.74262833  0.51593901    -0.28800
C285        C  0.20679526  0.73267784  0.51595185    -0.04900
C286        C  0.19262792  0.74368317  0.52285615     0.07400
C287        C  0.20079316  0.76032957  0.52683566     0.01100
H288        H  0.20558721  0.71883849  0.51055369     0.08800
H289        H  0.19392352  0.77276589  0.53146631     0.07900
N290        N  0.27583945  0.73414075  0.49559041    -0.36000
N291        N  0.28725105  0.74837006  0.49444996    -0.28100
C292        C  0.30347509  0.74262877  0.48730482    -0.03400
C293        C  0.30227132  0.72397141  0.48369268     0.05200
C294        C  0.28457270  0.71902679  0.48908205     0.03300
H295        H  0.31519518  0.75147594  0.48459612     0.08400
H296        H  0.27844372  0.70547367  0.48815904     0.07300
N297        N  0.98849740  0.76523472  0.54423944    -0.36400
N298        N  0.98820258  0.76504524  0.50423863    -0.57000
N299        N  0.02816004  0.76237942  0.50366624    -0.36400
N300        N  0.02823696  0.76050957  0.54381117    -0.57000
C301        C  0.97037955  0.76207679  0.54138799     0.27100
C302        C  0.99164953  0.76235055  0.56235114     0.27100
C303        C  0.02460902  0.76062936  0.48546062     0.27100
C304        C  0.04559119  0.75636785  0.50636859     0.27100
C305        C  0.97008961  0.76801212  0.50750632     0.35800
C306        C  0.99116133  0.76862225  0.48616144     0.35800
C307        C  0.02586630  0.76439329  0.56192521     0.35800
C308        C  0.04661628  0.76016798  0.54062587     0.35800
C309        C  0.96191603  0.75718133  0.55795634    -0.21700
C310        C  0.97533518  0.75753546  0.57123761    -0.21700
C311        C  0.04009905  0.75382291  0.47638518    -0.21700
C312        C  0.05331617  0.75107632  0.48957812    -0.21700
C313        C  0.96142051  0.77325666  0.49137872    -0.22800
C314        C  0.97481168  0.77377395  0.47786159    -0.22800
C315        C  0.04281744  0.76620416  0.57036324    -0.22800
C316        C  0.05597093  0.76327515  0.55691177    -0.22800
C317        C  0.96104441  0.76485168  0.52456454    -0.18100
C318        C  0.00864753  0.76511662  0.57121464    -0.18100
C319        C  0.05511611  0.75654630  0.52334216    -0.18100
C320        C  0.00801905  0.76567897  0.47668431    -0.18100
H321        H  0.94748728  0.75409525  0.56031970     0.14800
H322        H  0.97332176  0.75462498  0.58578146     0.14800
H323        H  0.04171783  0.75110488  0.46176451     0.14800
H324        H  0.06712237  0.74594317  0.48703685     0.14800
H325        H  0.94694113  0.77623863  0.48951461     0.13100
H326        H  0.97266240  0.77709965  0.46347370     0.13100
H327        H  0.04544550  0.76895932  0.58477844     0.13100
H328        H  0.07073127  0.76356002  0.55888067     0.13100
H329        H  0.99770770  0.77130195  0.53501855     0.26300
H330        H  0.01986604  0.76914137  0.51323820     0.26300
N331        N  0.00328990  0.53304311  0.76337358    -0.36400
N332        N  0.99871489  0.49351552  0.76715186    -0.57000
N333        N  0.03843247  0.48962800  0.76850049    -0.36400
N334        N  0.04281342  0.52911075  0.76635168    -0.57000
C335        C  0.98477955  0.53174173  0.76496462     0.27100
C336        C  0.00796156  0.55051822  0.76788538     0.27100
C337        C  0.03323413  0.47280489  0.77470282     0.27100
C338        C  0.05665028  0.49136537  0.77174190     0.27100
C339        C  0.98148106  0.49778252  0.76173667     0.35800
C340        C  0.99983847  0.47493031  0.76733603     0.35800
C341        C  0.04182261  0.54744696  0.76355284     0.35800
C342        C  0.06047708  0.52426145  0.76308797     0.35800
C343        C  0.97750842  0.54868257  0.77012357    -0.21700
C344        C  0.99216627  0.56046517  0.77223375    -0.21700
C345        C  0.04841127  0.46371365  0.78185606    -0.21700
C346        C  0.06321919  0.47540176  0.77987759    -0.21700
C347        C  0.97148197  0.48181723  0.75870813    -0.22800
C348        C  0.98309536  0.46730593  0.76241302    -0.22800
C349        C  0.05898038  0.55439559  0.75868432    -0.22800
C350        C  0.07081281  0.53961062  0.75816235    -0.22800
C351        C  0.97424682  0.51585650  0.76110799    -0.18100
C352        C  0.02590625  0.55810308  0.76680384    -0.18100
C353        C  0.06768041  0.50656691  0.76650998    -0.18100
C354        C  0.01558364  0.46482516  0.77262327    -0.18100
H355        H  0.96314250  0.55219474  0.77224674     0.14800
H356        H  0.99123804  0.57485193  0.77608172     0.14800
H357        H  0.04887141  0.44992183  0.78754829     0.14800
H358        H  0.07724673  0.47244748  0.78386603     0.14800
H359        H  0.95720275  0.48074974  0.75468552     0.13100
H360        H  0.97962691  0.45282411  0.76158563     0.13100
H361        H  0.06258965  0.56862673  0.75597664     0.13100
H362        H  0.08545282  0.54019568  0.75518173     0.13100
H363        H  0.01183731  0.52313893  0.75747709     0.26300
H364        H  0.03067880  0.49844284  0.76038666     0.26300
N365        N  0.02544374  0.78300017  0.73660207    -0.27100
N366        N  0.01971745  0.76604498  0.73332539    -0.35000
C367        C  0.01399278  0.76483004  0.71585014     0.01200
C368        C  0.01615803  0.78180900  0.70755356     0.07200
C369        C  0.02349856  0.79310004  0.72107797    -0.05900
H370        H  0.00948976  0.75221953  0.70933901     0.07900
H371        H  0.02775480  0.80731197  0.71953633     0.09100
Cu372      Cu  0.02208018  0.74442458  0.75152326     0.44200
Cu373      Cu  0.03692759  0.79026707  0.76185895     0.42000
Cu374      Cu  0.04645944  0.75104213  0.79337680     0.43900
N375        N  0.02849856  0.72311856  0.76906362    -0.34500
N376        N  0.03796807  0.72519599  0.78439005    -0.28800
C377        C  0.04077992  0.70846044  0.79197918    -0.04900
C378        C  0.03255232  0.69540623  0.78081536     0.07400
C379        C  0.02495783  0.70517570  0.76644948     0.01100
H380        H  0.04842500  0.70596355  0.80447052     0.08800
H381        H  0.01782963  0.69959578  0.75466772     0.07900
N382        N  0.05148375  0.77864654  0.79941352    -0.36000
N383        N  0.04796926  0.79267501  0.78825699    -0.28100
C384        C  0.05235141  0.80848167  0.79689256    -0.03400
C385        C  0.05890493  0.80423249  0.81426050     0.05200
C386        C  0.05818117  0.78520992  0.81536400     0.03300
H387        H  0.05067146  0.82210131  0.79104741     0.08400
H388        H  0.06208909  0.77675190  0.82699392     0.07300
N389        N  0.29177428  0.48611689  0.80128874    -0.27100
N390        N  0.27479333  0.48226416  0.80681445    -0.35000
C391        C  0.27392073  0.48274288  0.82531712     0.01200
C392        C  0.29117446  0.48711213  0.83177617     0.07200
C393        C  0.30222366  0.48926473  0.81621895    -0.05900
H394        H  0.26143225  0.48099139  0.83343338     0.07900
H395        H  0.31654969  0.49337546  0.81576426     0.09100
Cu396      Cu  0.25296392  0.47923302  0.78909317     0.44200
Cu397      Cu  0.29895259  0.48731166  0.77354019     0.42000
Cu398      Cu  0.26021392  0.48617690  0.74069605     0.43900
N399        N  0.23179379  0.48184073  0.77051904    -0.34500
N400        N  0.23423113  0.48495962  0.75268483    -0.28800
C401        C  0.21766698  0.48735338  0.74481984    -0.04900
C402        C  0.20428021  0.48566223  0.75849208     0.07400
C403        C  0.21372000  0.48217908  0.77454621     0.01100
H404        H  0.21556428  0.49041478  0.73037388     0.08800
H405        H  0.20789736  0.48062354  0.78827920     0.07900
N406        N  0.28776886  0.48356908  0.73346180    -0.36000
N407        N  0.30160538  0.48390051  0.74521949    -0.28100
C408        C  0.31728897  0.47970580  0.73612149    -0.03400
C409        C  0.31312275  0.47658759  0.71783914     0.05200
C410        C  0.29432963  0.47921656  0.71659470     0.03300
H411        H  0.33059664  0.47813604  0.74252645     0.08400
H412        H  0.28591469  0.47726371  0.70451877     0.07300
N413        N  0.73983815  0.23527747  0.50509731    -0.27100
N414        N  0.75589707  0.23165173  0.51266582    -0.35000
C415        C  0.75766688  0.21339098  0.51487225     0.01200
C416        C  0.74191430  0.20504613  0.50843791     0.07200
C417        C  0.73082977  0.21930961  0.50231443    -0.05900
H418        H  0.76986550  0.20662228  0.52003275     0.07900
H419        H  0.71755847  0.21812917  0.49576580     0.09100
Cu420      Cu  0.77572014  0.25130899  0.51708237     0.44200
Cu421      Cu  0.73272669  0.26179749  0.49734397     0.42000
Cu422      Cu  0.77112106  0.29543635  0.49484081     0.43900
N423        N  0.79690365  0.26997458  0.51492110    -0.34500
N424        N  0.79586152  0.28587122  0.50604529    -0.28800
C425        C  0.81296943  0.29309349  0.50472098    -0.04900
C426        C  0.82511063  0.28113699  0.51333075     0.07400
C427        C  0.81444242  0.26667908  0.51954907     0.01100
H428        H  0.81646182  0.30552548  0.49720398     0.08800
H429        H  0.81927948  0.25401059  0.52573353     0.07900
N430        N  0.74405028  0.30068397  0.48646513    -0.36000
N431        N  0.73032396  0.28877017  0.48824812    -0.28100
C432        C  0.71478296  0.29646632  0.48193368    -0.03400
C433        C  0.71879883  0.31396030  0.47548496     0.05200
C434        C  0.73750695  0.31620180  0.47862468     0.03300
H435        H  0.70155171  0.28961141  0.48166518     0.08400
H436        H  0.74582486  0.32810895  0.47516181     0.07300
N437        N  0.75291632  0.00268310  0.53266862    -0.36400
N438        N  0.75430171  0.99862774  0.49318207    -0.57000
N439        N  0.75158138  0.03848031  0.48913192    -0.36400
N440        N  0.75222143  0.04246474  0.52883690    -0.57000
C441        C  0.75563087  0.98432499  0.53112615     0.27100
C442        C  0.75810468  0.00763722  0.54982238     0.27100
C443        C  0.75728921  0.03380965  0.47191482     0.27100
C444        C  0.75298472  0.05699383  0.49056372     0.27100
C445        C  0.75035958  0.98098893  0.49757651     0.35800
C446        C  0.75328410  0.99982118  0.47465771     0.35800
C447        C  0.75138774  0.04125882  0.54742886     0.35800
C448        C  0.74784176  0.06000794  0.52448503     0.35800
C449        C  0.76233082  0.97737565  0.54753994    -0.21700
C450        C  0.76418069  0.99214636  0.55927523    -0.21700
C451        C  0.76202900  0.04961608  0.46217070    -0.21700
C452        C  0.75905320  0.06427474  0.47386218    -0.21700
C453        C  0.74699454  0.97085619  0.48175013    -0.22800
C454        C  0.74910545  0.98278264  0.46716020    -0.22800
C455        C  0.74671676  0.05819049  0.55498682    -0.22800
C456        C  0.74439328  0.07007611  0.54043215    -0.22800
C457        C  0.75122993  0.97363844  0.51555327    -0.18100
C458        C  0.75603363  0.02539864  0.55769384    -0.18100
C459        C  0.74864568  0.06748300  0.50647309    -0.18100
C460        C  0.75723878  0.01582956  0.46436736    -0.18100
H461        H  0.76559888  0.96316818  0.55069754     0.14800
H462        H  0.76897714  0.99144896  0.57335342     0.14800
H463        H  0.76682641  0.05053973  0.44799348     0.14800
H464        H  0.76135322  0.07863078  0.47049371     0.14800
H465        H  0.74387192  0.95630363  0.48078111     0.13100
H466        H  0.74769382  0.97934397  0.45270646     0.13100
H467        H  0.74536706  0.06165919  0.56947100     0.13100
H468        H  0.74106001  0.08458481  0.54150423     0.13100
H469        H  0.74569531  0.01075096  0.52337961     0.26300
H470        H  0.74532994  0.02985244  0.49875595     0.26300
N471        N  0.52439939  0.99724062  0.76114348    -0.36400
N472        N  0.48424791  0.99653718  0.76107231    -0.57000
N473        N  0.48389890  0.03656612  0.75987107    -0.36400
N474        N  0.52385188  0.03733666  0.76250955    -0.57000
C475        C  0.52147219  0.97886052  0.76223048     0.27100
C476        C  0.54211619  0.00043422  0.76591042     0.27100
C477        C  0.46590040  0.03345681  0.76378083     0.27100
C478        C  0.48677532  0.05487349  0.76142975     0.27100
C479        C  0.48732526  0.97849372  0.75757930     0.35800
C480        C  0.46585304  0.99923122  0.75989447     0.35800
C481        C  0.54227893  0.03472595  0.76223573     0.35800
C482        C  0.52104290  0.05528318  0.75846449     0.35800
C483        C  0.53768001  0.97017225  0.76731897    -0.21700
C484        C  0.55062178  0.98378286  0.76985576    -0.21700
C485        C  0.45721425  0.05007751  0.76768723    -0.21700
C486        C  0.47033472  0.06361313  0.76595527    -0.21700
C487        C  0.47072071  0.96960398  0.75448997    -0.22800
C488        C  0.45711459  0.98271630  0.75610595    -0.22800
C489        C  0.55123891  0.05122210  0.75854439    -0.22800
C490        C  0.53776797  0.06422269  0.75598815    -0.22800
C491        C  0.50474211  0.96965609  0.75821388    -0.18100
C492        C  0.55122419  0.01775049  0.76555557    -0.18100
C493        C  0.50365194  0.06399718  0.75801952    -0.18100
C494        C  0.45674907  0.01628416  0.76268240    -0.18100
H495        H  0.53996137  0.95554163  0.76912179     0.14800
H496        H  0.56480614  0.98160724  0.77378539     0.14800
H497        H  0.44280724  0.05230856  0.77103049     0.14800
H498        H  0.46799020  0.07822114  0.76786496     0.14800
H499        H  0.46858961  0.95512141  0.75165027     0.13100
H500        H  0.44248099  0.98038796  0.75455056     0.13100
H501        H  0.56594325  0.05360522  0.75758220     0.13100
H502        H  0.54003669  0.07865649  0.75292376     0.13100
H503        H  0.51538649  0.00668488  0.75549557     0.26300
H504        H  0.49319530  0.02722981  0.75428283     0.26300
N505        N  0.71908614  0.02608082  0.77716585    -0.27100
N506        N  0.71709513  0.01678295  0.76162930    -0.35000
C507        C  0.69922309  0.01258736  0.75949273     0.01200
C508        C  0.68944679  0.01958132  0.77437075     0.07200
C509        C  0.70243156  0.02808217  0.78534074    -0.05900
H510        H  0.69360096  0.00593600  0.74744075     0.07900
H511        H  0.69985261  0.03584168  0.79785376     0.09100
Cu512      Cu  0.73791956  0.01315255  0.74229899     0.44200
Cu513      Cu  0.74423675  0.03698219  0.78524355     0.42000
Cu514      Cu  0.78100295  0.03587133  0.75018316     0.43900
N515        N  0.75766096  0.01721911  0.72195111    -0.34500
N516        N  0.77331888  0.02607285  0.72460685    -0.28800
C517        C  0.78156322  0.02916659  0.70815341    -0.04900
C518        C  0.77052871  0.02179695  0.69461038     0.07400
C519        C  0.75550828  0.01439203  0.70379616     0.01100
H520        H  0.79395136  0.03724181  0.70612534     0.08800
H521        H  0.74324749  0.00870359  0.69764139     0.07900
N522        N  0.78437778  0.04525976  0.77688731    -0.36000
N523        N  0.77108647  0.04589738  0.78954878    -0.28100
C524        C  0.77803102  0.05265281  0.80530187    -0.03400
C525        C  0.79651265  0.05632807  0.80235173     0.05200
C526        C  0.80010040  0.05150686  0.78424643     0.03300
H527        H  0.77027213  0.05452461  0.81800633     0.08400
H528        H  0.81318097  0.05239082  0.77697828     0.07300
N529        N  0.49349473  0.22992590  0.74229913    -0.27100
N530        N  0.50109550  0.22627829  0.75835724    -0.35000
C531        C  0.50422323  0.20813889  0.75963445     0.01200
C532        C  0.49838549  0.19997372  0.74354806     0.07200
C533        C  0.49160056  0.21412976  0.73277750    -0.05900
H534        H  0.51006772  0.20134405  0.77151783     0.07900
H535        H  0.48560856  0.21303417  0.71921438     0.09100
Cu536      Cu  0.50615337  0.24590510  0.77808322     0.44200
Cu537      Cu  0.48593337  0.25631936  0.73527697     0.42000
Cu538      Cu  0.49422241  0.29313131  0.77003565     0.43900
N539        N  0.50854973  0.26613777  0.79774294    -0.34500
N540        N  0.50401453  0.28359421  0.79522315    -0.28800
C541        C  0.50578979  0.29262187  0.81137949    -0.04900
C542        C  0.51178236  0.28011543  0.82451996     0.07400
C543        C  0.51334167  0.26353305  0.81536283     0.01100
H544        H  0.50236108  0.30697707  0.81355166     0.08800
H545        H  0.51688296  0.25031925  0.82129797     0.07900
N546        N  0.48361086  0.29724391  0.74373106    -0.36000
N547        N  0.48033615  0.28391049  0.73173348    -0.28100
C548        C  0.47335365  0.29120989  0.71631566    -0.03400
C549        C  0.47233527  0.31003889  0.71851696     0.05200
C550        C  0.47889139  0.31346124  0.73605359     0.03300
H551        H  0.46954690  0.28336399  0.70424985     0.08400
H552        H  0.48030956  0.32674325  0.74266139     0.07300
N553        N  0.28123413  0.53122516  0.99337231    -0.36400
N554        N  0.27823755  0.49131390  0.99588729    -0.57000
N555        N  0.27635426  0.49407459  0.03610958    -0.36400
N556        N  0.27698467  0.53392611  0.03346204    -0.57000
C557        C  0.28083557  0.52693043  0.97521202     0.27100
C558        C  0.27722503  0.54938955  0.99495465     0.27100
C559        C  0.27173044  0.47612432  0.03404688     0.27100
C560        C  0.27352297  0.49853112  0.05406392     0.27100
C561        C  0.28301539  0.49262524  0.97782665     0.35800
C562        C  0.27796059  0.47313532  0.00006005     0.35800
C563        C  0.27846081  0.55202860  0.02938392     0.35800
C564        C  0.27884049  0.53246203  0.05193844     0.35800
C565        C  0.27714374  0.54268550  0.96505313    -0.21700
C566        C  0.27465527  0.55679917  0.97750938    -0.21700
C567        C  0.26611222  0.46904677  0.05100520    -0.21700
C568        C  0.26737684  0.48313265  0.06363818    -0.21700
C569        C  0.28545807  0.47515933  0.97041985    -0.22800
C570        C  0.28213342  0.46283136  0.98445555    -0.22800
C571        C  0.28091358  0.56216302  0.04538512    -0.22800
C572        C  0.28134579  0.54974883  0.05965678    -0.22800
C573        C  0.28397590  0.50923383  0.96754098    -0.18100
C574        C  0.27671246  0.55971356  0.01156530    -0.18100
C575        C  0.27692192  0.51595786  0.06215298    -0.18100
C576        C  0.27362984  0.46558638  0.01763146    -0.18100
H577        H  0.27611120  0.54388374  0.95020767     0.14800
H578        H  0.27153921  0.57097497  0.97405867     0.14800
H579        H  0.26182027  0.45507878  0.05406518     0.14800
H580        H  0.26409373  0.48212762  0.07821698     0.14800
H581        H  0.28898491  0.47163183  0.95629719     0.13100
H582        H  0.28280079  0.44797110  0.98330638     0.13100
H583        H  0.28224895  0.57696367  0.04666090     0.13100
H584        H  0.28287336  0.55312667  0.07411110     0.13100
H585        H  0.28576308  0.52266101  0.00376031     0.26300
H586        H  0.28306683  0.50217882  0.02645092     0.26300
N587        N  0.30574115  0.78465404  0.98457486    -0.27100
N588        N  0.31123474  0.76757116  0.98767604    -0.35000
C589        C  0.32951108  0.76733576  0.99000892     0.01200
C590        C  0.33595716  0.78511100  0.98838743     0.07200
C591        C  0.32057120  0.79588498  0.98497408    -0.05900
H592        H  0.33753000  0.75510034  0.99286646     0.07900
H593        H  0.32018586  0.81065366  0.98293829     0.09100
Cu594      Cu  0.29399495  0.74514618  0.98936020     0.44200
Cu595      Cu  0.27809388  0.79073953  0.98007265     0.42000
Cu596      Cu  0.24581379  0.75079040  0.98305312     0.43900
N597        N  0.27558169  0.72373878  0.99187325    -0.34500
N598        N  0.25766514  0.72549100  0.98934586    -0.28800
C599        C  0.24961222  0.70892240  0.99185832    -0.04900
C600        C  0.26323677  0.69635004  0.99630640     0.07400
C601        C  0.27947697  0.70618421  0.99616174     0.01100
H602        H  0.23502200  0.70624036  0.99056019     0.08800
H603        H  0.29315455  0.70093283  0.99881665     0.07900
N604        N  0.23813203  0.77795180  0.97800563    -0.36000
N605        N  0.24963492  0.79207522  0.97662791    -0.28100
C606        C  0.23987246  0.80745750  0.97326836    -0.03400
C607        C  0.22136539  0.80290647  0.97271037     0.05200
C608        C  0.22079061  0.78408489  0.97576146     0.03300
H609        H  0.24581939  0.82102344  0.97148350     0.08400
H610        H  0.20863444  0.77547605  0.97647187     0.07300
N611        N  0.99767796  0.52166137  0.28611942    -0.36400
N612        N  0.00047142  0.48202470  0.28778045    -0.57000
N613        N  0.03952814  0.48449823  0.28072767    -0.36400
N614        N  0.03661519  0.52404413  0.27717316    -0.57000
C615        C  0.97973525  0.51685002  0.28744983     0.27100
C616        C  0.99835124  0.53881563  0.27878994     0.27100
C617        C  0.03669951  0.46666190  0.27616114     0.27100
C618        C  0.05679303  0.48889005  0.27527245     0.27100
C619        C  0.98368756  0.48386811  0.29570294     0.35800
C620        C  0.00497634  0.46404709  0.28902701     0.35800
C621        C  0.03246285  0.54218517  0.27743896     0.35800
C622        C  0.05507972  0.52279438  0.27888709     0.35800
C623        C  0.96881334  0.53125904  0.28131119    -0.21700
C624        C  0.98057129  0.54509922  0.27577110    -0.21700
C625        C  0.05248056  0.45966143  0.26769806    -0.21700
C626        C  0.06533147  0.47363214  0.26751664    -0.21700
C627        C  0.97748985  0.46695258  0.30219207    -0.22800
C628        C  0.99094411  0.45430596  0.29773599    -0.22800
C629        C  0.04841458  0.55257139  0.27871234    -0.22800
C630        C  0.06275577  0.54025267  0.27995244    -0.22800
C631        C  0.97295210  0.50001685  0.29463717    -0.18100
C632        C  0.01448211  0.54943446  0.27596228    -0.18100
C633        C  0.06516497  0.50615680  0.27798159    -0.18100
C634        C  0.02087290  0.45620390  0.28088840    -0.18100
H635        H  0.95391524  0.53174460  0.28082186     0.14800
H636        H  0.97645910  0.55837628  0.27036610     0.14800
H637        H  0.05473243  0.44576985  0.26272577     0.14800
H638        H  0.07927614  0.47273449  0.26212705     0.14800
H639        H  0.96430966  0.46391627  0.30864785     0.13100
H640        H  0.99037089  0.43961758  0.30032230     0.13100
H641        H  0.04957366  0.56744180  0.27894078     0.13100
H642        H  0.07720426  0.54375544  0.28098781     0.13100
H643        H  0.00857318  0.51441120  0.29180688     0.26300
H644        H  0.03120081  0.49269507  0.28909386     0.26300
N645        N  0.99851076  0.77012182  0.30805074    -0.27100
N646        N  0.00243521  0.75270186  0.31155411    -0.35000
C647        C  0.00568939  0.75060431  0.32961243     0.01200
C648        C  0.00387317  0.76754238  0.33807936     0.07200
C649        C  0.99926437  0.77969195  0.32400557    -0.05900
H650        H  0.00878652  0.73758128  0.33618663     0.07900
H651        H  0.99641753  0.79427347  0.32532038     0.09100
Cu652      Cu  0.00211457  0.73222612  0.29204715     0.44200
Cu653      Cu  0.99128665  0.77866625  0.28151293     0.42000
Cu654      Cu  0.98526443  0.74132290  0.24664559     0.43900
N655        N  0.99902868  0.71209693  0.27245875    -0.34500
N656        N  0.99247165  0.71491150  0.25573913    -0.28800
C657        C  0.99166986  0.69854237  0.24691179    -0.04900
C658        C  0.99814898  0.68504473  0.25878332     0.07400
C659        C  0.00263751  0.69413315  0.27477375     0.01100
H660        H  0.98676681  0.69661090  0.23300082     0.08800
H661        H  0.00795269  0.68808864  0.28729821     0.07900
N662        N  0.98016582  0.76937778  0.24200419    -0.36000
N663        N  0.98259325  0.78262545  0.25433623    -0.28100
C664        C  0.97798767  0.79890289  0.24669542    -0.03400
C665        C  0.97230446  0.79586458  0.22876647     0.05200
C666        C  0.97389679  0.77698214  0.22627891     0.03300
H667        H  0.97860393  0.81202599  0.25374095     0.08400
H668        H  0.97056818  0.76930303  0.21396390     0.07300
N669        N  0.28261426  0.53322848  0.23029981    -0.27100
N670        N  0.26739565  0.52333185  0.22912747    -0.35000
C671        C  0.26504212  0.51803605  0.21157404     0.01200
C672        C  0.27953384  0.52474560  0.20104214     0.07200
C673        C  0.29049970  0.53428721  0.21338707    -0.05900
H674        H  0.25314970  0.51058617  0.20667586     0.07900
H675        H  0.30288246  0.54200448  0.21018368     0.09100
Cu676      Cu  0.24897298  0.51938923  0.25056055     0.44200
Cu677      Cu  0.29031439  0.54628828  0.25468969     0.42000
Cu678      Cu  0.25348351  0.54815833  0.29005620     0.43900
N679        N  0.22895420  0.52144889  0.27077789    -0.34500
N680        N  0.23020307  0.53250085  0.28517851    -0.28800
C681        C  0.21404530  0.53236709  0.29448658    -0.04900
C682        C  0.20207965  0.52075980  0.28531336     0.07400
C683        C  0.21202895  0.51406325  0.27040862     0.01100
H684        H  0.21094594  0.54079964  0.30643731     0.08800
H685        H  0.20693767  0.50544720  0.25940291     0.07900
N686        N  0.27969382  0.55886093  0.29331774    -0.36000
N687        N  0.29318646  0.55784495  0.28089337    -0.28100
C688        C  0.30873629  0.56443376  0.28843649    -0.03400
C689        C  0.30478966  0.56980462  0.30640164     0.05200
C690        C  0.28626177  0.56614587  0.30896424     0.03300
H691        H  0.32205804  0.56470439  0.28157882     0.08400
H692        H  0.27827995  0.56799220  0.32153828     0.07300
N693        N  0.54133070  0.25009073  0.02373803    -0.36400
N694        N  0.53886424  0.25030845  0.98425387    -0.57000
N695        N  0.49928908  0.24564768  0.98678539    -0.36400
N696        N  0.50179976  0.24628758  0.02640917    -0.57000
C697        C  0.55861508  0.25505325  0.01877375     0.27100
C698        C  0.53815529  0.25675352  0.04091788     0.27100
C699        C  0.50090532  0.25243481  0.96944810     0.27100
C700        C  0.48133255  0.24683350  0.99173445     0.27100
C701        C  0.55721152  0.24775400  0.98553963     0.35800
C702        C  0.53485671  0.24929019  0.96616618     0.35800
C703        C  0.50628050  0.24509219  0.04439327     0.35800
C704        C  0.48454707  0.23959112  0.02495413     0.35800
C705        C  0.56673800  0.26471357  0.03300422    -0.21700
C706        C  0.55365353  0.26617603  0.04684755    -0.21700
C707        C  0.48367044  0.25763573  0.96316485    -0.21700
C708        C  0.47126139  0.25393290  0.97721129    -0.21700
C709        C  0.56492841  0.24493152  0.96816810    -0.22800
C710        C  0.55074113  0.24618179  0.95582638    -0.22800
C711        C  0.49183020  0.23747970  0.05448294    -0.22800
C712        C  0.47804117  0.23389492  0.04210987    -0.22800
C713        C  0.56723855  0.25061270  0.00182260    -0.18100
C714        C  0.52231743  0.25296833  0.05189721    -0.18100
C715        C  0.47385392  0.24112974  0.00888076    -0.18100
C716        C  0.51737405  0.25312883  0.95885887    -0.18100
H717        H  0.58053631  0.27034966  0.03327869     0.14800
H718        H  0.55557004  0.27292264  0.06000230     0.14800
H719        H  0.48034488  0.26330132  0.94977841     0.14800
H720        H  0.45654922  0.25636361  0.97684976     0.14800
H721        H  0.57936397  0.24314567  0.96467512     0.13100
H722        H  0.55199892  0.24526969  0.94094959     0.13100
H723        H  0.49110222  0.23532603  0.06926300     0.13100
H724        H  0.46449185  0.22854262  0.04547604     0.13100
H725        H  0.53311965  0.24084638  0.01656989     0.26300
H726        H  0.50944784  0.23892187  0.99423856     0.26300
N727        N  0.78558237  0.31503573  0.98150609    -0.27100
N728        N  0.76898808  0.31742745  0.98886715    -0.35000
C729        C  0.76712667  0.33503512  0.99426834     0.01200
C730        C  0.78330761  0.34418758  0.99015189     0.07200
C731        C  0.79473299  0.33118850  0.98198081    -0.05900
H732        H  0.75465708  0.34091237  0.00011343     0.07900
H733        H  0.80842166  0.33342172  0.97634506     0.09100
Cu734      Cu  0.74889137  0.29730109  0.98997775     0.44200
Cu735      Cu  0.79441936  0.28989025  0.97076124     0.42000
Cu736      Cu  0.76104270  0.25192785  0.97513038     0.43900
N737        N  0.73013117  0.27597214  0.98862490    -0.34500
N738        N  0.73445484  0.25910692  0.98323490    -0.28800
C739        C  0.71911890  0.24864148  0.98355090    -0.04900
C740        C  0.70452450  0.25954766  0.98944868     0.07400
C741        C  0.71201244  0.27676292  0.99248802     0.01100
H742        H  0.71861478  0.23424632  0.97970648     0.08800
H743        H  0.70477438  0.28902068  0.99703132     0.07900
N744        N  0.78794977  0.24901263  0.96545327    -0.36000
N745        N  0.79977837  0.26272276  0.96313742    -0.28100
C746        C  0.81546495  0.25601013  0.95562136    -0.03400
C747        C  0.81347027  0.23716945  0.95324152     0.05200
C748        C  0.79588850  0.23325328  0.95972415     0.03300
H749        H  0.82738966  0.26426818  0.95203579     0.08400
H750        H  0.78924227  0.21990980  0.96005375     0.07300
N751        N  0.53564856  0.00158168  0.25244215    -0.36400
N752        N  0.53630218  0.04134376  0.25024807    -0.57000
N753        N  0.49638603  0.04188394  0.24912261    -0.36400
N754        N  0.49572082  0.00207200  0.25229026    -0.57000
C755        C  0.55352285  0.00513099  0.25607958     0.27100
C756        C  0.53189894  0.98451191  0.25900351     0.27100
C757        C  0.49980984  0.05979979  0.25303813     0.27100
C758        C  0.47823323  0.03886621  0.25226472     0.27100
C759        C  0.55425549  0.03790927  0.24651266     0.35800
C760        C  0.53352170  0.05936227  0.24654499     0.35800
C761        C  0.49869738  0.98372112  0.25117095     0.35800
C762        C  0.47797418  0.00491529  0.24762703     0.35800
C763        C  0.56132222  0.99010629  0.26487824    -0.21700
C764        C  0.54761077  0.97713091  0.26688128    -0.21700
C765        C  0.48356094  0.06830757  0.25866237    -0.21700
C766        C  0.46990405  0.05511437  0.25803570    -0.21700
C767        C  0.56295303  0.05381201  0.24038651    -0.22800
C768        C  0.54981034  0.06746328  0.24051033    -0.22800
C769        C  0.48272436  0.97480172  0.24587488    -0.22800
C770        C  0.46959328  0.98826286  0.24353015    -0.22800
C771        C  0.56319576  0.02112079  0.25052792    -0.18100
C772        C  0.51514840  0.97488860  0.25659303    -0.18100
C773        C  0.46886884  0.02212126  0.24881407    -0.18100
C774        C  0.51691011  0.06889837  0.25022631    -0.18100
H775        H  0.57544973  0.98861355  0.26928211     0.14800
H776        H  0.54916141  0.96361746  0.27301931     0.14800
H777        H  0.48165630  0.08263110  0.26239755     0.14800
H778        H  0.45546676  0.05726324  0.26130704     0.14800
H779        H  0.57736968  0.05552359  0.23679006     0.13100
H780        H  0.55204488  0.08177716  0.23689982     0.13100
H781        H  0.48067491  0.96012030  0.24422110     0.13100
H782        H  0.45537607  0.98600104  0.23978502     0.13100
H783        H  0.52725661  0.00942350  0.24393768     0.26300
H784        H  0.50535766  0.03278908  0.24253925     0.26300
N785        N  0.73164443  0.00526938  0.24587336    -0.27100
N786        N  0.72960636  0.01395712  0.26181360    -0.35000
C787        C  0.71181086  0.01849077  0.26437734     0.01200
C788        C  0.70203725  0.01240929  0.24936293     0.07200
C789        C  0.71497537  0.00401398  0.23786424    -0.05900
H790        H  0.70625941  0.02502475  0.27666088     0.07900
H791        H  0.71237128  0.99709646  0.22493311     0.09100
Cu792      Cu  0.75023996  0.01688418  0.28088009     0.44200
Cu793      Cu  0.75720220  0.99471859  0.23692464     0.42000
Cu794      Cu  0.79044442  0.98891244  0.27416209     0.43900
N795        N  0.76923039  0.01210965  0.30124491    -0.34500
N796        N  0.78355909  0.00101166  0.29924579    -0.28800
C797        C  0.79147169  0.99860838  0.31580246    -0.04900
C798        C  0.78156241  0.00873328  0.32872639     0.07400
C799        C  0.76762021  0.01710923  0.31901066     0.01100
H800        H  0.80292867  0.98944961  0.31839822     0.08800
H801        H  0.75631605  0.02511191  0.32468786     0.07900
N802        N  0.79599129  0.98261297  0.24671353    -0.36000
N803        N  0.78437779  0.98529683  0.23300607    -0.28100
C804        C  0.79315402  0.98136657  0.21694998    -0.03400
C805        C  0.81107908  0.97588997  0.22076780     0.05200
C806        C  0.81225497  0.97677519  0.23979759     0.03300
H807        H  0.78703463  0.98265140  0.20346048     0.08400
H808        H  0.82421783  0.97370595  0.24803759     0.07300
N809        N  0.52888623  0.23602730  0.26726920    -0.27100
N810        N  0.51593993  0.23691874  0.25462844    -0.35000
C811        C  0.51046736  0.21972847  0.25045871     0.01200
C812        C  0.52045788  0.20748034  0.26102641     0.07200
C813        C  0.53198804  0.21826393  0.27156797    -0.05900
H814        H  0.50097816  0.21632932  0.23956658     0.07900
H815        H  0.54256775  0.21351197  0.28084308     0.09100
Cu816      Cu  0.51022691  0.26084359  0.24017199     0.44200
Cu817      Cu  0.54334005  0.25898360  0.27563326     0.42000
Cu818      Cu  0.54723982  0.29424708  0.24033294     0.43900
N819        N  0.51663045  0.27782628  0.21812352    -0.34500
N820        N  0.53189769  0.28770742  0.21703855    -0.28800
C821        C  0.53583467  0.29092672  0.19907918    -0.04900
C822        C  0.52226222  0.28278896  0.18842108     0.07400
C823        C  0.51008643  0.27515648  0.20110571     0.01100
H824        H  0.54838015  0.29739329  0.19412417     0.08800
H825        H  0.49843074  0.26641806  0.19811281     0.07900
N826        N  0.55581890  0.29782994  0.26751216    -0.36000
N827        N  0.55420630  0.28483830  0.28026700    -0.28100
C828        C  0.55912764  0.29170844  0.29669492    -0.03400
C829        C  0.56406618  0.30990467  0.29424180     0.05200
C830        C  0.56187647  0.31338781  0.27558579     0.03300
H831        H  0.55851787  0.28419205  0.30959711     0.08400
H832        H  0.56380032  0.32643441  0.26857920     0.07300
N833        N  0.24611008  0.99507114  0.53217316    -0.36400
N834        N  0.24427744  0.03541830  0.53415128    -0.57000
N835        N  0.24947253  0.03718301  0.49445492    -0.36400
N836        N  0.24882211  0.99680552  0.49238766    -0.57000
C837        C  0.24055745  0.99717198  0.54990886     0.27100
C838        C  0.24492014  0.97691986  0.52812238     0.27100
C839        C  0.24765604  0.05537622  0.49815949     0.27100
C840        C  0.24770770  0.03498258  0.47602246     0.27100
C841        C  0.24366583  0.03151703  0.55239649     0.35800
C842        C  0.24728902  0.05375933  0.53265225     0.35800
C843        C  0.25192024  0.97855603  0.49440884     0.35800
C844        C  0.25153011  0.00063831  0.47432918     0.35800
C845        C  0.23596216  0.98007689  0.55727312    -0.21700
C846        C  0.23886956  0.96729322  0.54357178    -0.21700
C847        C  0.24521661  0.06494198  0.48177699    -0.21700
C848        C  0.24501896  0.05207552  0.46785696    -0.21700
C849        C  0.24575701  0.04754753  0.56256156    -0.22800
C850        C  0.24811214  0.06162159  0.55006211    -0.22800
C851        C  0.25630308  0.97068281  0.47749650    -0.22800
C852        C  0.25591335  0.98465461  0.46474066    -0.22800
C853        C  0.24076521  0.01379992  0.56011342    -0.18100
C854        C  0.24996434  0.96868492  0.51112738    -0.18100
C855        C  0.24949476  0.01819998  0.46614561    -0.18100
C856        C  0.24877392  0.06366857  0.51582727    -0.18100
H857        H  0.23132959  0.97704188  0.57120597     0.14800
H858        H  0.23678141  0.95257882  0.54487587     0.14800
H859        H  0.24366151  0.07966597  0.47997996     0.14800
H860        H  0.24343475  0.05504906  0.45331270     0.14800
H861        H  0.24569182  0.04894779  0.57743986     0.13100
H862        H  0.25011826  0.07601000  0.55342252     0.13100
H863        H  0.25921798  0.95633248  0.47459999     0.13100
H864        H  0.25864345  0.98321682  0.45008908     0.13100
H865        H  0.25250332  0.00500668  0.52409654     0.26300
H866        H  0.25359941  0.02717568  0.50369125     0.26300
N867        N  0.23290932  0.00045028  0.72743509    -0.27100
N868        N  0.24845728  0.00927646  0.72387127    -0.35000
C869        C  0.24930486  0.01344841  0.70586729     0.01200
C870        C  0.23347179  0.00708141  0.69765766     0.07200
C871        C  0.22328521  0.99893019  0.71173285    -0.05900
H872        H  0.26097553  0.01994106  0.69908442     0.07900
H873        H  0.21025049  0.99182513  0.71053836     0.09100
Cu874      Cu  0.26898568  0.01342484  0.74277635     0.44200
Cu875      Cu  0.22715445  0.98920231  0.75303217     0.42000
Cu876      Cu  0.26579228  0.99024027  0.78597421     0.43900
N877        N  0.29039704  0.01258974  0.76113148    -0.34500
N878        N  0.28967680  0.00344756  0.77690358    -0.28800
C879        C  0.30657643  0.00347305  0.78441973    -0.04900
C880        C  0.31832953  0.01323743  0.77278577     0.07400
C881        C  0.30761400  0.01876092  0.75818232     0.01100
H882        H  0.31025918  0.99612198  0.79684760     0.08800
H883        H  0.31228213  0.02561187  0.74570532     0.07900
N884        N  0.23976231  0.97940303  0.79153038    -0.36000
N885        N  0.22610683  0.97882734  0.77957964    -0.28100
C886        C  0.21127355  0.97115343  0.78772514    -0.03400
C887        C  0.21566485  0.96688515  0.80572452     0.05200
C888        C  0.23382327  0.97227986  0.80768342     0.03300
H889        H  0.19814555  0.96911964  0.78109440     0.08400
H890        H  0.24202172  0.97139654  0.82003486     0.07300
N891        N  0.99108934  0.26699781  0.53352768    -0.36400
N892        N  0.03054089  0.27105925  0.53159894    -0.57000
N893        N  0.02947221  0.26720645  0.49146087    -0.36400
N894        N  0.98993003  0.26462628  0.49341528    -0.57000
C895        C  0.99481930  0.27124051  0.55127178     0.27100
C896        C  0.97307159  0.27076306  0.53074081     0.27100
C897        C  0.04659858  0.27417143  0.49352488     0.27100
C898        C  0.02536704  0.26833064  0.47333031     0.27100
C899        C  0.02877654  0.26758149  0.54986432     0.35800
C900        C  0.04874785  0.27044235  0.52763818     0.35800
C901        C  0.97191337  0.26205315  0.49747828     0.35800
C902        C  0.99231717  0.25969587  0.47556511     0.35800
C903        C  0.97892683  0.27744077  0.56004634    -0.21700
C904        C  0.96521862  0.27733721  0.54702100    -0.21700
C905        C  0.05356774  0.27956848  0.47643661    -0.21700
C906        C  0.04019874  0.27572983  0.46365227    -0.21700
C907        C  0.04595916  0.26477115  0.55755898    -0.22800
C908        C  0.05864767  0.26681981  0.54349496    -0.22800
C909        C  0.96275632  0.25557203  0.48209992    -0.22800
C910        C  0.97572049  0.25394742  0.46823859    -0.22800
C911        C  0.01200211  0.26862139  0.55990399    -0.18100
C912        C  0.96329677  0.26719791  0.51429279    -0.18100
C913        C  0.00879454  0.26223944  0.46529785    -0.18100
C914        C  0.05661278  0.27438501  0.51016189    -0.18100
H915        H  0.97739544  0.28160667  0.57432842     0.14800
H916        H  0.95099357  0.28126290  0.54939063     0.14800
H917        H  0.06702393  0.28534512  0.47343900     0.14800
H918        H  0.04124705  0.27816918  0.44893265     0.14800
H919        H  0.04907017  0.26207496  0.57188957     0.13100
H920        H  0.07346234  0.26583422  0.54479810     0.13100
H921        H  0.94819025  0.25265764  0.48090797     0.13100
H922        H  0.97309428  0.24965984  0.45420397     0.13100
H923        H  0.99983859  0.25992191  0.52456756     0.26300
H924        H  0.02186276  0.26017467  0.50144502     0.26300
N925        N  0.00876984  0.29704054  0.78316421    -0.27100
N926        N  0.02027563  0.30040305  0.76928559    -0.35000
C927        C  0.02392609  0.31851540  0.76860071     0.01200
C928        C  0.01425879  0.32706972  0.78268205     0.07200
C929        C  0.00472056  0.31308667  0.79168549    -0.05900
H930        H  0.03219573  0.32512825  0.75798207     0.07900
H931        H  0.99514124  0.31454695  0.80314808     0.09100
Cu932      Cu  0.02766429  0.28126904  0.74952557     0.44200
Cu933      Cu  0.99864699  0.27071716  0.78862583     0.42000
Cu934      Cu  0.00574493  0.23711036  0.75146698     0.43900
N935        N  0.02551617  0.26423768  0.72689101    -0.34500
N936        N  0.01681296  0.24824094  0.72728868    -0.28800
C937        C  0.01465820  0.24230934  0.70983422    -0.04900
C938        C  0.02245329  0.25520448  0.69800692     0.07400
C939        C  0.02915198  0.26891933  0.70926941     0.01100
H940        H  0.00687985  0.23022161  0.70598469     0.08800
H941        H  0.03480630  0.28204113  0.70492272     0.07900
N942        N  0.99507486  0.23058430  0.77745730    -0.36000
N943        N  0.99239168  0.24277517  0.79082361    -0.28100
C944        C  0.98538246  0.23407246  0.80574369    -0.03400
C945        C  0.98360947  0.21558857  0.80156571     0.05200
C946        C  0.98982299  0.21382394  0.78354913     0.03300
H947        H  0.98180050  0.24071453  0.81866168     0.08400
H948        H  0.99039758  0.20131651  0.77544231     0.07300
N949        N  0.27039294  0.23057476  0.53156392    -0.27100
N950        N  0.25541869  0.22969418  0.52137861    -0.35000
C951        C  0.25230318  0.21214794  0.51653129     0.01200
C952        C  0.26591375  0.20128092  0.52397458     0.07200
C953        C  0.27719946  0.21335348  0.53351892    -0.05900
H954        H  0.24053845  0.20753128  0.50874717     0.07900
H955        H  0.28916736  0.20982897  0.54156685     0.09100
Cu956      Cu  0.23822156  0.25161097  0.51622337     0.44200
Cu957      Cu  0.27968011  0.25557845  0.54249103     0.42000
Cu958      Cu  0.24597932  0.29391103  0.53888887     0.43900
N959        N  0.21916671  0.27261434  0.51668468    -0.34500
N960        N  0.22172817  0.28829439  0.52550508    -0.28800
C961        C  0.20599279  0.29810443  0.52533390    -0.04900
C962        C  0.19296030  0.28795222  0.51596269     0.07400
C963        C  0.20177611  0.27191134  0.51067925     0.01100
H964        H  0.20389487  0.31108068  0.53240321     0.08800
H965        H  0.19563081  0.26006077  0.50410920     0.07900
N966        N  0.27214522  0.29632671  0.54939333    -0.36000
N967        N  0.28449373  0.28292019  0.55040543    -0.28100
C968        C  0.30030002  0.29004912  0.55685971    -0.03400
C969        C  0.29766989  0.30871911  0.56006858     0.05200
C970        C  0.27965147  0.31213868  0.55527777     0.03300
H971        H  0.31286501  0.28228836  0.55882252     0.08400
H972        H  0.27254064  0.32524676  0.55576661     0.07300
N973        N  0.02127778  0.28957230  0.25440661    -0.27100
N974        N  0.00461594  0.28971607  0.26189662    -0.35000
C975        C  0.99907042  0.30725832  0.26404394     0.01200
C976        C  0.01328136  0.31889337  0.25850813     0.07200
C977        C  0.02711554  0.30704886  0.25238800    -0.05900
H978        H  0.98609036  0.31114083  0.27038957     0.07900
H979        H  0.04083177  0.31077278  0.24774373     0.09100
Cu980      Cu  0.99400277  0.26713125  0.27581985     0.44200
Cu981      Cu  0.03518004  0.26534841  0.24801339     0.42000
Cu982      Cu  0.02286605  0.22637373  0.27590066     0.43900
N983        N  0.99689533  0.24997095  0.29849504    -0.34500
N984        N  0.00796653  0.23548116  0.29883337    -0.28800
C985        C  0.01024028  0.23021130  0.31649317    -0.04900
C986        C  0.00022555  0.24202983  0.32778006     0.07400
C987        C  0.99191463  0.25431856  0.31589587     0.01100
H988        H  0.01974508  0.21962893  0.32089730     0.08800
H989        H  0.98439126  0.26663964  0.31973953     0.07900
N990        N  0.03800764  0.22405046  0.25146570    -0.36000
N991        N  0.04267322  0.23851716  0.24133032    -0.28100
C992        C  0.05172618  0.23272808  0.22609617    -0.03400
C993        C  0.05288986  0.21369737  0.22667572     0.05200
C994        C  0.04406363  0.20864740  0.24297722     0.03300
H995        H  0.05676618  0.24168091  0.21520408     0.08400
H996        H  0.04201332  0.19480057  0.24816374     0.07300
N997        N  0.24743503  0.02901121  0.29805099    -0.27100
N998        N  0.26509828  0.02587142  0.30093741    -0.35000
C999        C  0.26781406  0.02277688  0.31893750     0.01200
C1000       C  0.25104419  0.02403154  0.32788403     0.07200
C1001       C  0.23833052  0.02807601  0.31434695    -0.05900
H1002       H  0.28111320  0.02043584  0.32512868     0.07900
H1003       H  0.22373980  0.03060960  0.31626112     0.09100
Cu1004     Cu  0.28504530  0.02746724  0.28083266     0.44200
Cu1005     Cu  0.23771357  0.03535705  0.27191728     0.42000
Cu1006     Cu  0.27366209  0.03937348  0.23473476     0.43900
N1007       N  0.30448012  0.03055646  0.26039266    -0.34500
N1008       N  0.30074271  0.03490276  0.24312246    -0.28800
C1009       C  0.31676137  0.03595418  0.23350497    -0.04900
C1010       C  0.33102569  0.03213060  0.24552930     0.07400
C1011       C  0.32272004  0.02878198  0.26236691     0.01100
H1012       H  0.31795229  0.03939416  0.21900506     0.08800
H1013       H  0.32945636  0.02538594  0.27518118     0.07900
N1014       N  0.24540503  0.04356922  0.23129247    -0.36000
N1015       N  0.23269136  0.04217034  0.24451570    -0.28100
C1016       C  0.21613128  0.04639918  0.23747354    -0.03400
C1017       C  0.21848718  0.05064693  0.21899670     0.05200
C1018       C  0.23717246  0.04869688  0.21553317     0.03300
H1019       H  0.20334326  0.04661859  0.24530189     0.08400
H1020       H  0.24431617  0.05118993  0.20257770     0.07300
N1021       N  0.26073377  0.29783849  0.03907009    -0.27100
N1022       N  0.27816696  0.29957777  0.03391351    -0.35000
C1023       C  0.28201563  0.31736025  0.03065337     0.01200
C1024       C  0.26624148  0.32755965  0.03369707     0.07200
C1025       C  0.25293572  0.31477703  0.03913388    -0.05900
H1026       H  0.29528225  0.32245582  0.02597258     0.07900
H1027       H  0.23863050  0.31754951  0.04246596     0.09100
Cu1028     Cu  0.29589046  0.27787979  0.03008638     0.44200
Cu1029     Cu  0.24939084  0.27174623  0.04483208     0.42000
Cu1030     Cu  0.28089026  0.23167838  0.03610954     0.43900
N1031       N  0.31269261  0.25560940  0.02547386    -0.34500
N1032       N  0.30750797  0.23830061  0.02768373    -0.28800
C1033       C  0.32212930  0.22725262  0.02440047    -0.04900
C1034       C  0.33705176  0.23834622  0.01983356     0.07400
C1035       C  0.33055658  0.25617002  0.02068634     0.01100
H1036       H  0.32203060  0.21239600  0.02570040     0.08800
H1037       H  0.33840673  0.26868814  0.01857854     0.07900
N1038       N  0.25386552  0.22973675  0.04571414    -0.36000
N1039       N  0.24264996  0.24381614  0.04905141    -0.28100
C1040       C  0.22647160  0.23714209  0.05551339    -0.03400
C1041       C  0.22756517  0.21806249  0.05624336     0.05200
C1042       C  0.24510672  0.21390507  0.04989008     0.03300
H1043       H  0.21477410  0.24556005  0.05949143     0.08400
H1044       H  0.25111474  0.20032089  0.04844003     0.07300
C1045       C  0.42196415  0.41960352  0.59743802     0.86700
C1046       C  0.43271466  0.40568033  0.60912707    -0.53600
C1047       C  0.42239174  0.39627784  0.62191487     0.09600
C1048       C  0.40175003  0.40139765  0.62159132     0.20500
C1049       C  0.40608647  0.40821387  0.58888864    -0.54300
C1050       C  0.39572947  0.39827368  0.60144329     0.09700
C1051       C  0.41129500  0.43177997  0.61130568    -0.53800
C1052       C  0.40104405  0.42248207  0.62411008     0.10300
H1053       H  0.44745735  0.40357441  0.60744685     0.14800
H1054       H  0.39333673  0.39380500  0.63197297     0.00500
H1055       H  0.40274341  0.40838052  0.57435122     0.15100
H1056       H  0.41105630  0.44670889  0.61052683     0.14900
C1057       C  0.60416246  0.42551202  0.41358283     0.86700
C1058       C  0.61652705  0.43459767  0.39889462    -0.53600
C1059       C  0.62794503  0.42285229  0.38939958     0.09600
C1060       C  0.62522064  0.40245314  0.39509487     0.20500
C1061       C  0.59344289  0.41059232  0.40290524    -0.54300
C1062       C  0.60437658  0.39883203  0.39281065     0.09700
C1063       C  0.61719285  0.41376392  0.42559410    -0.53800
C1064       C  0.62835435  0.40187994  0.41607832     0.10300
H1065       H  0.61622315  0.44933636  0.39629323     0.14800
H1066       H  0.63416516  0.39251869  0.38760465     0.00500
H1067       H  0.57852867  0.40953891  0.40297334     0.15100
H1068       H  0.61700865  0.41400055  0.44052756     0.14900
C1069       C  0.60768974  0.60594928  0.61082047     0.86700
C1070       C  0.59554918  0.61786554  0.62382916    -0.53600
C1071       C  0.60490500  0.63022063  0.63436923     0.09600
C1072       C  0.62588521  0.62988286  0.63063341     0.20500
C1073       C  0.61814669  0.62064095  0.59933103    -0.54300
C1074       C  0.62809271  0.63287854  0.60956903     0.09700
C1075       C  0.62245310  0.59738369  0.62315248    -0.53800
C1076       C  0.63188884  0.60965648  0.63384037     0.10300
H1077       H  0.58064751  0.61722862  0.62421250     0.14800
H1078       H  0.63331472  0.64014239  0.63907885     0.00500
H1079       H  0.61800559  0.62121423  0.58436031     0.15100
H1080       H  0.62519452  0.58266963  0.62333596     0.14900
C1081       C  0.41918417  0.61313656  0.42468208     0.86700
C1082       C  0.40814176  0.62728571  0.43615523    -0.53600
C1083       C  0.39785526  0.63937853  0.42611695     0.09600
C1084       C  0.39955956  0.63628330  0.40505147     0.20500
C1085       C  0.40381484  0.60406100  0.41311396    -0.54300
C1086       C  0.39399804  0.61594312  0.40231444     0.09700
C1087       C  0.43048420  0.62470311  0.41068912    -0.53800
C1088       C  0.42044010  0.63706345  0.40057774     0.10300
H1089       H  0.40782659  0.62723225  0.45114307     0.14800
H1090       H  0.39127837  0.64611785  0.39683274     0.00500
H1091       H  0.40000267  0.58968660  0.41388918     0.15100
H1092       H  0.44532556  0.62335099  0.40915604     0.14900
C1093       C  0.52887346  0.52845523  0.52432603     0.86700
C1094       C  0.51491453  0.54086460  0.51435331    -0.53600
C1095       C  0.50353614  0.53203697  0.50247486     0.09600
C1096       C  0.50674988  0.51096118  0.50190642     0.20500
C1097       C  0.51618101  0.51424892  0.53398244    -0.54300
C1098       C  0.50480526  0.50475875  0.52232864     0.09700
C1099       C  0.53877678  0.51753651  0.50914811    -0.53800
C1100       C  0.52752255  0.50848149  0.49717857     0.10300
H1101       H  0.51332690  0.55545254  0.51710773     0.14800
H1102       H  0.49733583  0.50378087  0.49235520     0.00500
H1103       H  0.51606863  0.51189882  0.54878596     0.15100
H1104       H  0.55371155  0.51691999  0.50808743     0.14900
C1105       C  0.43142648  0.60025713  0.43673226     0.01500
C1106       C  0.43185866  0.58074558  0.43440862     0.04300
C1107       C  0.43955636  0.56932488  0.44799085    -0.11700
C1108       C  0.45159162  0.57673965  0.46105867     0.23600
C1109       C  0.45379776  0.59598082  0.46193690    -0.12300
C1110       C  0.44313142  0.60768921  0.45065775     0.05000
C1111       C  0.46392986  0.56428869  0.47178237     0.27500
C1112       C  0.46241805  0.56306039  0.49116184    -0.13000
C1113       C  0.47565436  0.55312808  0.50126781     0.05500
C1114       C  0.48917061  0.54233372  0.49191092    -0.09000
C1115       C  0.48970542  0.54255921  0.47240502     0.06400
C1116       C  0.47788197  0.55424820  0.46250282    -0.13300
Br1117     Br  0.47214851  0.60626527  0.47815862    -0.05400
Br1118     Br  0.42965943  0.56930968  0.41056796     0.00200
Br1119     Br  0.47488506  0.55451565  0.52795549     0.00700
Br1120     Br  0.48159289  0.55731104  0.43617385    -0.03700
Br1121     Br  0.44604890  0.63383040  0.45437163     0.00800
Br1122     Br  0.43460744  0.54315020  0.44781293    -0.03000
Br1123     Br  0.44203497  0.57486852  0.50380347    -0.03900
Br1124     Br  0.50704100  0.52765423  0.45879184     0.00100
C1125       C  0.54257346  0.53886469  0.53680491     0.01500
C1126       C  0.54699399  0.55774038  0.53359846     0.04300
C1127       C  0.55574524  0.56812192  0.54729665    -0.11700
C1128       C  0.56369514  0.55923228  0.56245505     0.23600
C1129       C  0.56293579  0.53990804  0.56372046    -0.12300
C1130       C  0.55245632  0.52971896  0.55101069     0.05000
C1131       C  0.57525043  0.56989290  0.57541032     0.27500
C1132       C  0.59355462  0.57406212  0.57051175    -0.13000
C1133       C  0.60466588  0.58412466  0.58268444     0.05500
C1134       C  0.59719845  0.59129681  0.59944635    -0.09000
C1135       C  0.58006328  0.58377619  0.60559755     0.06400
C1136       C  0.56866174  0.57432427  0.59316172    -0.13300
Br1137     Br  0.57714149  0.52746959  0.58243076    -0.05400
Br1138     Br  0.54691036  0.56828439  0.50902846     0.00200
Br1139     Br  0.63064405  0.58460243  0.57744291     0.00700
Br1140     Br  0.54400321  0.56722661  0.60044456    -0.03700
Br1141     Br  0.55452335  0.50330377  0.55180715     0.00800
Br1142     Br  0.55757207  0.59456631  0.54488738    -0.03000
Br1143     Br  0.60347538  0.56551211  0.54711784    -0.03900
Br1144     Br  0.57404811  0.58159378  0.63158664     0.00100
C1145       C  0.59234848  0.44000653  0.42421094     0.01500
C1146       C  0.59816865  0.44762293  0.44135924     0.04300
C1147       C  0.58580603  0.45789732  0.45238718    -0.11700
C1148       C  0.56878506  0.46352689  0.44530343     0.23600
C1149       C  0.56431684  0.45913642  0.42704576    -0.12300
C1150       C  0.57606388  0.44768817  0.41644116     0.05000
C1151       C  0.55640268  0.47546073  0.45660178     0.27500
C1152       C  0.54189224  0.46762377  0.46693262    -0.13000
C1153       C  0.53104407  0.47868197  0.47881213     0.05500
C1154       C  0.53552433  0.49753253  0.48140948    -0.09000
C1155       C  0.54937440  0.50554345  0.46991568     0.06400
C1156       C  0.55953878  0.49456048  0.45743249    -0.13300
Br1157     Br  0.54222494  0.46947949  0.41651744    -0.05400
Br1158     Br  0.62389536  0.44910574  0.44798155     0.00200
Br1159     Br  0.51037403  0.46733237  0.49116829     0.00700
Br1160     Br  0.57815810  0.50550953  0.44161840    -0.03700
Br1161     Br  0.57068419  0.44551459  0.39062410     0.00800
Br1162     Br  0.59236601  0.46481323  0.47722216    -0.03000
Br1163     Br  0.53756580  0.44140547  0.46531121    -0.03900
Br1164     Br  0.55433764  0.53174005  0.47056656     0.00100
C1165       C  0.43503999  0.43074188  0.58434965     0.01500
C1166       C  0.44492274  0.44646859  0.59099794     0.04300
C1167       C  0.45526871  0.45763336  0.57878802    -0.11700
C1168       C  0.45728357  0.45274256  0.56016222     0.23600
C1169       C  0.44962463  0.43621908  0.55383949    -0.12300
C1170       C  0.43934566  0.42485283  0.56598463     0.05000
C1171       C  0.46911499  0.46423544  0.54784312     0.27500
C1172       C  0.46139437  0.47879879  0.53772650    -0.13000
C1173       C  0.47290215  0.49131517  0.52816532     0.05500
C1174       C  0.49231154  0.48974489  0.52925795    -0.09000
C1175       C  0.49985248  0.47413360  0.53820039     0.06400
C1176       C  0.48829824  0.46146683  0.54742584    -0.13300
Br1177     Br  0.45412101  0.42889113  0.52852070    -0.05400
Br1178     Br  0.44731468  0.45207121  0.61700088     0.00200
Br1179     Br  0.46158009  0.51042150  0.51392029     0.00700
Br1180     Br  0.49869057  0.44052325  0.56009693    -0.03700
Br1181     Br  0.43547871  0.39995323  0.55793323     0.00800
Br1182     Br  0.46745104  0.47963947  0.58758133    -0.03000
Br1183     Br  0.43496221  0.48190066  0.53773458    -0.03900
Br1184     Br  0.52591999  0.46921716  0.53705243     0.00100
C1185       C  0.31125407  0.32229111  0.56679283     0.01500
C1186       C  0.32024664  0.31928999  0.58371283     0.04300
C1187       C  0.33381626  0.33170396  0.58968520    -0.11700
C1188       C  0.33780224  0.34762874  0.57924075     0.23600
C1189       C  0.32811462  0.35120757  0.56290902    -0.12300
C1190       C  0.31515673  0.33840304  0.55645111     0.05000
C1191       C  0.35249814  0.36045572  0.58515096     0.27500
C1192       C  0.34861847  0.37427607  0.59816988    -0.13000
C1193       C  0.36258165  0.38650470  0.60371841     0.05500
C1194       C  0.38060614  0.38526353  0.59592999    -0.09000
C1195       C  0.38440213  0.37081781  0.58323585     0.06400
C1196       C  0.37036249  0.35871794  0.57770975    -0.13300
Br1197     Br  0.33273654  0.37376009  0.54945269    -0.05400
Br1198     Br  0.31317948  0.29887425  0.59937340     0.00200
Br1199     Br  0.35622715  0.40452764  0.62207182     0.00700
Br1200     Br  0.37552848  0.33940789  0.56002177    -0.03700
Br1201     Br  0.30364152  0.34269733  0.53293119     0.00800
Br1202     Br  0.34707797  0.32691258  0.61212856    -0.03000
Br1203     Br  0.32386941  0.37644702  0.60813627    -0.03900
Br1204     Br  0.40920336  0.36553485  0.57515190     0.00100
C1205       C  0.07653863  0.27894537  0.50935824     0.01500
C1206       C  0.08952610  0.26502615  0.50548388     0.04300
C1207       C  0.10843882  0.26891449  0.50647141    -0.11700
C1208       C  0.11439970  0.28690469  0.51072763     0.23600
C1209       C  0.10140548  0.30101781  0.51387591    -0.12300
C1210       C  0.08246591  0.29698733  0.51337847     0.05000
C1211       C  0.13437398  0.29062367  0.51228044     0.27500
C1212       C  0.14267995  0.29042748  0.52976945    -0.13000
C1213       C  0.16198714  0.29061529  0.53110528     0.05500
C1214       C  0.17297913  0.29120656  0.51491687    -0.09000
C1215       C  0.16462402  0.29256334  0.49750567     0.06400
C1216       C  0.14532554  0.29235360  0.49619304    -0.13300
Br1217     Br  0.10962789  0.32573603  0.51905494    -0.05400
Br1218     Br  0.08130752  0.24058055  0.49913788     0.00200
Br1219     Br  0.17320763  0.28814014  0.55503305     0.00700
Br1220     Br  0.13380451  0.29352201  0.47234253    -0.03700
Br1221     Br  0.06455976  0.31608365  0.51825267     0.00800
Br1222     Br  0.12622385  0.24944405  0.50259072    -0.03000
Br1223     Br  0.12758576  0.28873765  0.55183629    -0.03900
Br1224     Br  0.17967114  0.29417138  0.47541408     0.00100
C1225       C  0.00828571  0.25935689  0.44495895     0.01500
C1226       C  0.01339038  0.24215907  0.43745094     0.04300
C1227       C  0.01151197  0.23886852  0.41841812    -0.11700
C1228       C  0.00489321  0.25290130  0.40676019     0.23600
C1229       C  0.99999138  0.27018676  0.41424671    -0.12300
C1230       C  0.00171033  0.27341284  0.43331060     0.05000
C1231       C  0.00372435  0.24969296  0.38654163     0.27500
C1232       C  0.01947683  0.25217075  0.37525852    -0.13000
C1233       C  0.01841689  0.24950594  0.35605079     0.05500
C1234       C  0.00159840  0.24412676  0.34804594    -0.09000
C1235       C  0.98585539  0.24161422  0.35935998     0.06400
C1236       C  0.98692981  0.24432751  0.37857650    -0.13300
Br1237     Br  0.99078761  0.28936146  0.39835252    -0.05400
Br1238     Br  0.02292708  0.22314304  0.45333679     0.00200
Br1239     Br  0.03979777  0.25435241  0.34069709     0.00700
Br1240     Br  0.96545723  0.24065893  0.39408579    -0.03700
Br1241     Br  0.99526415  0.29711554  0.44356911     0.00800
Br1242     Br  0.01766549  0.21504877  0.40826193    -0.03000
Br1243     Br  0.04247475  0.25945475  0.38622442    -0.03900
Br1244     Br  0.96286649  0.23419519  0.34851673     0.00100
C1245       C  0.02027517  0.25640284  0.67782095     0.01500
C1246       C  0.00404330  0.26394564  0.67041336     0.04300
C1247       C  0.00216587  0.26561089  0.65116396    -0.11700
C1248       C  0.01654536  0.25982024  0.63927219     0.23600
C1249       C  0.03276153  0.25224422  0.64670281    -0.12300
C1250       C  0.03467505  0.25068355  0.66596463     0.05000
C1251       C  0.01488298  0.26228245  0.61899081     0.27500
C1252       C  0.00821116  0.24780878  0.60797545    -0.13000
C1253       C  0.00706740  0.25003814  0.58871974     0.05500
C1254       C  0.01243285  0.26681071  0.58039867    -0.09000
C1255       C  0.01890395  0.28138424  0.59145614     0.06400
C1256       C  0.02017332  0.27909074  0.61070880    -0.13300
Br1257     Br  0.05238989  0.24420696  0.63042960    -0.05400
Br1258     Br  0.98466694  0.27261920  0.68669306     0.00200
Br1259     Br  0.99878137  0.22986641  0.57357707     0.00700
Br1260     Br  0.02937544  0.29885236  0.62583336    -0.03700
Br1261     Br  0.05715006  0.24110319  0.67622192     0.00800
Br1262     Br  0.98001990  0.27603992  0.64099860    -0.03000
Br1263     Br  0.00086040  0.22486078  0.61931502    -0.03900
Br1264     Br  0.02615251  0.30440662  0.58018720     0.00100
C1265       C  0.26651314  0.18091195  0.52305741     0.01500
C1266       C  0.26216309  0.17027130  0.53882329     0.04300
C1267       C  0.25998057  0.15104626  0.53726512    -0.11700
C1268       C  0.26195419  0.14239733  0.51993891     0.23600
C1269       C  0.26678245  0.15293765  0.50427057    -0.12300
C1270       C  0.26912101  0.17214186  0.50584000     0.05000
C1271       C  0.25861387  0.12225823  0.51824524     0.27500
C1272       C  0.27332482  0.10974352  0.52010543    -0.13000
C1273       C  0.27003627  0.09064923  0.51931668     0.05500
C1274       C  0.25200362  0.08395964  0.51671918    -0.09000
C1275       C  0.23725171  0.09648515  0.51496231     0.06400
C1276       C  0.24059159  0.11560274  0.51550279    -0.13300
Br1277     Br  0.26968852  0.14104930  0.48060486    -0.05400
Br1278     Br  0.25793708  0.18210277  0.56233157     0.00200
Br1279     Br  0.29019528  0.07354806  0.52210582     0.00700
Br1280     Br  0.22053299  0.13277303  0.51251166    -0.03700
Br1281     Br  0.27595745  0.18649466  0.48438529     0.00800
Br1282     Br  0.25371802  0.13648261  0.55874460    -0.03000
Br1283     Br  0.29795476  0.11886152  0.52387593    -0.03900
Br1284     Br  0.21247963  0.08738350  0.51213383     0.00100
C1285       C  0.24889462  0.01903704  0.44570913     0.01500
C1286       C  0.23195985  0.01674130  0.43668079     0.04300
C1287       C  0.23125122  0.01784527  0.41734785    -0.11700
C1288       C  0.24756568  0.02073078  0.40704146     0.23600
C1289       C  0.26456027  0.02267396  0.41605632    -0.12300
C1290       C  0.26519444  0.02201298  0.43540951     0.05000
C1291       C  0.24697033  0.02157727  0.38668428     0.27500
C1292       C  0.24733894  0.00516170  0.37632255    -0.13000
C1293       C  0.24793263  0.00598184  0.35694921     0.05500
C1294       C  0.24821502  0.02320122  0.34796617    -0.09000
C1295       C  0.24790620  0.03961395  0.35833201     0.06400
C1296       C  0.24704779  0.03880285  0.37769784    -0.13300
Br1297     Br  0.28694191  0.02607843  0.40180218    -0.05400
Br1298     Br  0.20981995  0.01194981  0.45088427     0.00200
Br1299     Br  0.24908312  0.98356022  0.34268164     0.00700
Br1300     Br  0.24665235  0.06122165  0.39202563    -0.03700
Br1301     Br  0.28833961  0.02496791  0.44788644     0.00800
Br1302     Br  0.20799270  0.01556138  0.40492213    -0.03000
Br1303     Br  0.24783032  0.98162582  0.38876125    -0.03900
Br1304     Br  0.25007393  0.06314071  0.34604888     0.00100
C1305       C  0.22987480  0.00741499  0.67766392     0.01500
C1306       C  0.23079464  0.02437738  0.66815405     0.04300
C1307       C  0.23109759  0.02466586  0.64879242    -0.11700
C1308       C  0.22987191  0.00807207  0.63886585     0.23600
C1309       C  0.22760083  0.99122262  0.64826769    -0.12300
C1310       C  0.22786475  0.99081613  0.66768624     0.05000
C1311       C  0.23236071  0.00840288  0.61859976     0.27500
C1312       C  0.21725215  0.01198565  0.60712129    -0.13000
C1313       C  0.22003604  0.01402704  0.58800126     0.05500
C1314       C  0.23790557  0.01235160  0.58037769    -0.09000
C1315       C  0.25295020  0.00832396  0.59182005     0.06400
C1316       C  0.25018449  0.00638291  0.61093709    -0.13300
Br1317     Br  0.22500567  0.96869795  0.63439358    -0.05400
Br1318     Br  0.23166661  0.04732601  0.68161286     0.00200
Br1319     Br  0.19944252  0.01895087  0.57214738     0.00700
Br1320     Br  0.27079598  0.00117626  0.62673883    -0.03700
Br1321     Br  0.22723550  0.96734078  0.68025523     0.00800
Br1322     Br  0.23415504  0.04771302  0.63575047    -0.03000
Br1323     Br  0.19284234  0.01412566  0.61770926    -0.03900
Br1324     Br  0.27731180  0.00553922  0.58122468     0.00100
C1325       C  0.59676824  0.38527228  0.37938688     0.01500
C1326       C  0.59870014  0.36610057  0.38226819     0.04300
C1327       C  0.59236600  0.35347754  0.36900393    -0.11700
C1328       C  0.58444860  0.35990418  0.35257500     0.23600
C1329       C  0.58222901  0.37893332  0.34970296    -0.12300
C1330       C  0.58836103  0.39157664  0.36299529     0.05000
C1331       C  0.57923955  0.34676186  0.33784384     0.27500
C1332       C  0.59249982  0.34112551  0.32462920    -0.13000
C1333       C  0.58743480  0.32935242  0.31012072     0.05500
C1334       C  0.56914056  0.32303581  0.30888631    -0.09000
C1335       C  0.55588909  0.32861366  0.32216473     0.06400
C1336       C  0.56094862  0.34044723  0.33663051    -0.13300
Br1337     Br  0.57128519  0.38761327  0.32710886    -0.05400
Br1338     Br  0.61016032  0.35680543  0.40412325     0.00200
Br1339     Br  0.60566844  0.32144178  0.29221798     0.00700
Br1340     Br  0.54291818  0.34805811  0.35487126    -0.03700
Br1341     Br  0.58722414  0.41747582  0.35727489     0.00800
Br1342     Br  0.59458010  0.32727699  0.37312751    -0.03000
Br1343     Br  0.61764931  0.34946345  0.32656767    -0.03900
Br1344     Br  0.53064797  0.32055587  0.32021023     0.00100
C1345       C  0.52072874  0.18721371  0.25920654     0.01500
C1346       C  0.50548033  0.17680508  0.26536629     0.04300
C1347       C  0.50551101  0.15752380  0.26337369    -0.11700
C1348       C  0.52081171  0.14854986  0.25526505     0.23600
C1349       C  0.53609430  0.15894123  0.24909209    -0.12300
C1350       C  0.53602821  0.17826734  0.25098456     0.05000
C1351       C  0.52070099  0.12815692  0.25345032     0.27500
C1352       C  0.52785225  0.11711434  0.26768153    -0.13000
C1353       C  0.52609273  0.09781343  0.26689294     0.05500
C1354       C  0.51772259  0.08941481  0.25153543    -0.09000
C1355       C  0.51110817  0.10047227  0.23701318     0.06400
C1356       C  0.51243570  0.11980887  0.23806005    -0.13300
Br1357     Br  0.55702511  0.14663467  0.23800332    -0.05400
Br1358     Br  0.48475099  0.18894595  0.27702923     0.00200
Br1359     Br  0.53483515  0.08287408  0.28704700     0.00700
Br1360     Br  0.50299868  0.13497975  0.21843020    -0.03700
Br1361     Br  0.55656928  0.19251912  0.24162771     0.00800
Br1362     Br  0.48460541  0.14326993  0.27180736    -0.03000
Br1363     Br  0.54014893  0.12854671  0.28818551    -0.03900
Br1364     Br  0.50062995  0.08907319  0.21550615     0.00100
C1365       C  0.35106866  0.03173865  0.24200394     0.01500
C1366       C  0.36226759  0.04550153  0.24976171     0.04300
C1367       C  0.38154823  0.04358553  0.24939114    -0.11700
C1368       C  0.38970311  0.02777848  0.24147309     0.23600
C1369       C  0.37853576  0.01424446  0.23326488    -0.12300
C1370       C  0.35922590  0.01628133  0.23343595     0.05000
C1371       C  0.40992977  0.02505552  0.24277399     0.27500
C1372       C  0.42166239  0.03043491  0.22810926    -0.13000
C1373       C  0.44090291  0.02916860  0.23001383     0.05500
C1374       C  0.44848095  0.02270093  0.24665749    -0.09000
C1375       C  0.43671991  0.01698443  0.26120080     0.06400
C1376       C  0.41747962  0.01795504  0.25916684    -0.13300
Br1377     Br  0.38969518  0.99245296  0.22278421    -0.05400
Br1378     Br  0.35111117  0.06674992  0.26140246     0.00200
Br1379     Br  0.45697506  0.03629538  0.20983900     0.00700
Br1380     Br  0.40134317  0.00968352  0.27885257    -0.03700
Br1381     Br  0.34386244  0.99729328  0.22313677     0.00800
Br1382     Br  0.39684237  0.06221906  0.26045508    -0.03000
Br1383     Br  0.41130520  0.03973622  0.20553396    -0.03900
Br1384     Br  0.44699414  0.00842428  0.28411449     0.00100
C1385       C  0.58368027  0.02028156  0.24955280     0.01500
C1386       C  0.59431074  0.02744675  0.26403247     0.04300
C1387       C  0.61366029  0.02606933  0.26330294    -0.11700
C1388       C  0.62246764  0.01755389  0.24805819     0.23600
C1389       C  0.61179008  0.01042598  0.23356392    -0.12300
C1390       C  0.59244796  0.01180660  0.23431187     0.05000
C1391       C  0.64292265  0.01595011  0.24738836     0.27500
C1392       C  0.65382835  0.03139831  0.24273815    -0.13000
C1393       C  0.67319730  0.03011828  0.24302902     0.05500
C1394       C  0.68177341  0.01325885  0.24742587    -0.09000
C1395       C  0.67088026  0.99769488  0.25164118     0.06400
C1396       C  0.65150668  0.99907635  0.25179560    -0.13300
Br1397     Br  0.62368623  0.99865402  0.21273367    -0.05400
Br1398     Br  0.58225288  0.03872306  0.28505871     0.00200
Br1399     Br  0.68805379  0.05152971  0.23760224     0.00700
Br1400     Br  0.63667082  0.97802772  0.25866818    -0.03700
Br1401     Br  0.57784936  0.00219973  0.21440641     0.00800
Br1402     Br  0.62811832  0.03549998  0.28338512    -0.03000
Br1403     Br  0.64216361  0.05435942  0.23613053    -0.03900
Br1404     Br  0.68252318  0.97470221  0.25810318     0.00100
C1405       C  0.52238054  0.25792276  0.07191928     0.01500
C1406       C  0.50984400  0.27118794  0.07894045     0.04300
C1407       C  0.50944177  0.27527579  0.09792376    -0.11700
C1408       C  0.52306935  0.26799714  0.10959393     0.23600
C1409       C  0.53640233  0.25573729  0.10230300    -0.12300
C1410       C  0.53521449  0.24971597  0.08391539     0.05000
C1411       C  0.52269975  0.27212756  0.12972534     0.27500
C1412       C  0.52701256  0.28988327  0.13635489    -0.13000
C1413       C  0.52619408  0.29359055  0.15546677     0.05500
C1414       C  0.52274182  0.27916130  0.16818496    -0.09000
C1415       C  0.51954338  0.26112047  0.16141617     0.06400
C1416       C  0.51829950  0.25798059  0.14234421    -0.13300
Br1417     Br  0.55642234  0.24725737  0.11747457    -0.05400
Br1418     Br  0.49358680  0.28434233  0.06260056     0.00200
Br1419     Br  0.52889745  0.31864579  0.16394095     0.00700
Br1420     Br  0.51014961  0.23422967  0.13346927    -0.03700
Br1421     Br  0.55057465  0.22956827  0.07551709     0.00800
Br1422     Br  0.48971116  0.29017958  0.10802855    -0.03000
Br1423     Br  0.53428053  0.30907572  0.11927398    -0.03900
Br1424     Br  0.51877282  0.23996791  0.17768972     0.00100
C1425       C  0.35648530  0.23324495  0.01673269     0.01500
C1426       C  0.36703500  0.22634477  0.03144984     0.04300
C1427       C  0.38632005  0.22529229  0.02965540    -0.11700
C1428       C  0.39504688  0.23140040  0.01331008     0.23600
C1429       C  0.38447444  0.23738356  0.99827146    -0.12300
C1430       C  0.36519025  0.23817546  0.99993573     0.05000
C1431       C  0.41529914  0.23346680  0.01264544     0.27500
C1432       C  0.42329253  0.24981297  0.01932035    -0.13000
C1433       C  0.44243728  0.25232626  0.01808204     0.05500
C1434       C  0.45364713  0.23837689  0.01039331    -0.09000
C1435       C  0.44567125  0.22193498  0.00391288     0.06400
C1436       C  0.42648183  0.21945310  0.00509892    -0.13300
Br1437     Br  0.39656085  0.24568334  0.97588389    -0.05400
Br1438     Br  0.35541359  0.22017840  0.05473599     0.00200
Br1439     Br  0.45327302  0.27509062  0.02641051     0.00700
Br1440     Br  0.41542586  0.19689122  0.99659405    -0.03700
Br1441     Br  0.35069598  0.24659649  0.97938477     0.00800
Br1442     Br  0.40102707  0.21677080  0.04999425    -0.03000
Br1443     Br  0.40791805  0.26874407  0.03018141    -0.03900
Br1444     Br  0.46109582  0.20287370  0.99345117     0.00100
C1445       C  0.68493297  0.25444377  0.99188138     0.01500
C1446       C  0.67433688  0.24911360  0.97655435     0.04300
C1447       C  0.65517040  0.24672838  0.97857270    -0.11700
C1448       C  0.64658669  0.24974166  0.99583642     0.23600
C1449       C  0.65724311  0.25411857  0.01132836    -0.12300
C1450       C  0.67639072  0.25644509  0.00937371     0.05000
C1451       C  0.62624008  0.24982727  0.99739818     0.27500
C1452       C  0.61652587  0.26631625  0.99409325    -0.13000
C1453       C  0.59723043  0.26665591  0.99573008     0.05500
C1454       C  0.58763475  0.25050788  0.00069647    -0.09000
C1455       C  0.59731815  0.23398991  0.00390404     0.06400
C1456       C  0.61663655  0.23364067  0.00224043    -0.13300
Br1457     Br  0.64539269  0.25755454  0.03507475    -0.05400
Br1458     Br  0.68568010  0.24646604  0.95248554     0.00200
Br1459     Br  0.58384916  0.28915529  0.99109865     0.00700
Br1460     Br  0.62999917  0.21104714  0.00634835    -0.03700
Br1461     Br  0.69089598  0.26232679  0.03074863     0.00800
Br1462     Br  0.64039299  0.24014540  0.95759406    -0.03000
Br1463     Br  0.62973019  0.28838169  0.98714470    -0.03900
Br1464     Br  0.58399461  0.21183332  0.01027812     0.00100
C1465       C  0.38010950  0.60933960  0.38858159     0.01500
C1466       C  0.36175640  0.61608760  0.38861091     0.04300
C1467       C  0.34904596  0.60971921  0.37548249    -0.11700
C1468       C  0.35453130  0.59677242  0.36207987     0.23600
C1469       C  0.37281781  0.59043507  0.36153336    -0.12300
C1470       C  0.38553947  0.59658589  0.37468177     0.05000
C1471       C  0.34130548  0.59016547  0.34806425     0.27500
C1472       C  0.33177859  0.57346866  0.35085962    -0.13000
C1473       C  0.32023929  0.56653763  0.33701059     0.05500
C1474       C  0.31776222  0.57656992  0.32049071    -0.09000
C1475       C  0.32735740  0.59327470  0.31771439     0.06400
C1476       C  0.33914537  0.60000979  0.33145509    -0.13300
Br1477     Br  0.38055035  0.57392672  0.34199319    -0.05400
Br1478     Br  0.35340285  0.63393907  0.40637316     0.00200
Br1479     Br  0.30893622  0.54263687  0.34021425     0.00700
Br1480     Br  0.35256436  0.62266975  0.32757564    -0.03700
Br1481     Br  0.41090589  0.58902795  0.37182423     0.00800
Br1482     Br  0.32405724  0.61894133  0.37545579    -0.03000
Br1483     Br  0.33476509  0.56005194  0.37365670    -0.03900
Br1484     Br  0.32410652  0.60721916  0.29529335     0.00100
C1485       C  0.08543464  0.50682783  0.28004301     0.01500
C1486       C  0.09693347  0.51066064  0.26475351     0.04300
C1487       C  0.11603081  0.51245342  0.26718554    -0.11700
C1488       C  0.12357399  0.51077495  0.28498932     0.23600
C1489       C  0.11205255  0.50681007  0.30025200    -0.12300
C1490       C  0.09304703  0.50443671  0.29770057     0.05000
C1491       C  0.14359934  0.51345533  0.28756828     0.27500
C1492       C  0.15533770  0.49809941  0.28932703    -0.13000
C1493       C  0.17452344  0.50065205  0.28989854     0.05500
C1494       C  0.18203346  0.51851625  0.28816125    -0.09000
C1495       C  0.17019172  0.53393734  0.28708999     0.06400
C1496       C  0.15099570  0.53139016  0.28725526    -0.13300
Br1497     Br  0.12225629  0.50529276  0.32469638    -0.05400
Br1498     Br  0.08641265  0.51342703  0.24057563     0.00200
Br1499     Br  0.19051581  0.47963488  0.29308720     0.00700
Br1500     Br  0.13468929  0.55242662  0.28651687    -0.03700
Br1501     Br  0.07734238  0.49796265  0.31839059     0.00800
Br1502     Br  0.13186603  0.51744748  0.24618057    -0.03000
Br1503     Br  0.14512284  0.47354577  0.29030647    -0.03900
Br1504     Br  0.17996394  0.55845307  0.28354092     0.00100
C1505       C  0.02071263  0.43613396  0.27671559     0.01500
C1506       C  0.03120680  0.42379566  0.28733069     0.04300
C1507       C  0.03134043  0.40490609  0.28300453    -0.11700
C1508       C  0.01991941  0.39808223  0.26891913     0.23600
C1509       C  0.00922068  0.41042395  0.25845311    -0.12300
C1510       C  0.00996630  0.42944847  0.26205748     0.05000
C1511       C  0.01815091  0.37787219  0.26605937     0.27500
C1512       C  0.02586878  0.36937023  0.25030931    -0.13000
C1513       C  0.02324430  0.35037378  0.24728329     0.05500
C1514       C  0.01456549  0.33929678  0.26098968    -0.09000
C1515       C  0.00763482  0.34789704  0.27726972     0.06400
C1516       C  0.00852672  0.36716970  0.27919790    -0.13300
Br1517     Br  0.99311019  0.40124163  0.23952818    -0.05400
Br1518     Br  0.04467217  0.43271610  0.30833130     0.00200
Br1519     Br  0.03049299  0.34020692  0.22364860     0.00700
Br1520     Br  0.99637005  0.37909220  0.29989690    -0.03700
Br1521     Br  0.99622760  0.44639499  0.24690715     0.00800
Br1522     Br  0.04716821  0.38834151  0.29638582    -0.03000
Br1523     Br  0.04028702  0.38379781  0.23299382    -0.03900
Br1524     Br  0.99844918  0.33382487  0.29810251     0.00100
C1525       C  0.01231194  0.56928061  0.27132011     0.01500
C1526       C  0.01160428  0.58252193  0.28551067     0.04300
C1527       C  0.00909055  0.60122580  0.28116170    -0.11700
C1528       C  0.00710722  0.60673322  0.26262058     0.23600
C1529       C  0.00789417  0.59352372  0.24839832    -0.12300
C1530       C  0.01040776  0.57478540  0.25275637     0.05000
C1531       C  0.00434843  0.62651368  0.25832609     0.27500
C1532       C  0.98658722  0.63431467  0.25968280    -0.13000
C1533       C  0.98433250  0.65355003  0.25844351     0.05500
C1534       C  0.99985212  0.66499035  0.25594256    -0.09000
C1535       C  0.01751046  0.65709461  0.25385190     0.06400
C1536       C  0.01974013  0.63787074  0.25491474    -0.13300
Br1537     Br  0.00563989  0.60120490  0.22303020    -0.05400
Br1538     Br  0.01394441  0.57494139  0.31090590     0.00200
Br1539     Br  0.96022804  0.66434024  0.26181699     0.00700
Br1540     Br  0.04400890  0.62708782  0.25301011    -0.03700
Br1541     Br  0.01086567  0.55653804  0.23340977     0.00800
Br1542     Br  0.00849139  0.61944218  0.30056974    -0.03000
Br1543     Br  0.96560084  0.61867160  0.26463366    -0.03900
Br1544     Br  0.03878968  0.67273698  0.25057105     0.00100
C1545       C  0.27790878  0.51716629  0.08263197     0.01500
C1546       C  0.29517723  0.51633860  0.09131815     0.04300
C1547       C  0.29626594  0.51783408  0.11063666    -0.11700
C1548       C  0.28008693  0.52017216  0.12131236     0.23600
C1549       C  0.26282984  0.52115557  0.11261886    -0.12300
C1550       C  0.26176131  0.51985424  0.09328493     0.05000
C1551       C  0.28113347  0.52134978  0.14172019     0.27500
C1552       C  0.28008316  0.50518055  0.15241590    -0.13000
C1553       C  0.28031081  0.50625254  0.17180668     0.05500
C1554       C  0.28124146  0.52359982  0.18064322    -0.09000
C1555       C  0.28235344  0.53981531  0.16982501     0.06400
C1556       C  0.28257957  0.53862668  0.15041553    -0.13300
Br1557     Br  0.24068014  0.52412339  0.12730235    -0.05400
Br1558     Br  0.31733974  0.51353410  0.07662195     0.00200
Br1559     Br  0.27968102  0.48377909  0.18611262     0.00700
Br1560     Br  0.28440388  0.56067983  0.13557633    -0.03700
Br1561     Br  0.23828033  0.52208691  0.08127698     0.00800
Br1562     Br  0.31985829  0.51664388  0.12257951    -0.03000
Br1563     Br  0.27794915  0.48158080  0.14032840    -0.03900
Br1564     Br  0.28189976  0.56382991  0.18128877     0.00100
C1565       C  0.27159880  0.44517577  0.01917975     0.01500
C1566       C  0.25410844  0.43687437  0.01771643     0.04300
C1567       C  0.25224778  0.41763727  0.01972070    -0.11700
C1568       C  0.26782533  0.40668358  0.02348054     0.23600
C1569       C  0.28528410  0.41502300  0.02502884    -0.12300
C1570       C  0.28719941  0.43417696  0.02262638     0.05000
C1571       C  0.26594758  0.38638855  0.02581470     0.27500
C1572       C  0.26138843  0.37889045  0.04323685    -0.13000
C1573       C  0.26065161  0.35961486  0.04570404     0.05500
C1574       C  0.26448582  0.34773204  0.03072411    -0.09000
C1575       C  0.26863636  0.35531726  0.01317096     0.06400
C1576       C  0.26944135  0.37456589  0.01076636    -0.13300
Br1577     Br  0.30650683  0.40017858  0.03084531    -0.05400
Br1578     Br  0.23274370  0.45195885  0.01317247     0.00200
Br1579     Br  0.25571065  0.34958647  0.06992364     0.00700
Br1580     Br  0.27593146  0.38485407  0.98697577    -0.03700
Br1581     Br  0.31121376  0.44545955  0.02393051     0.00800
Br1582     Br  0.22839360  0.40620889  0.01747725    -0.03000
Br1583     Br  0.25704114  0.39516753  0.06388420    -0.03900
Br1584     Br  0.27305200  0.33938601  0.99223165     0.00100
C1585       C  0.27363762  0.57993349  0.01030234     0.01500
C1586       C  0.25551997  0.58695776  0.01063245     0.04300
C1587       C  0.25251063  0.60606344  0.00950226    -0.11700
C1588       C  0.26761558  0.61818252  0.00819080     0.23600
C1589       C  0.28575498  0.61118919  0.00837183    -0.12300
C1590       C  0.28875546  0.59205831  0.00922249     0.05000
C1591       C  0.26447199  0.63818334  0.00552791     0.27500
C1592       C  0.26144428  0.64509730  0.98762589    -0.13000
C1593       C  0.25988242  0.66419651  0.98474058     0.05500
C1594       C  0.26152967  0.67640776  0.99972684    -0.09000
C1595       C  0.26365543  0.66945137  0.01775285     0.06400
C1596       C  0.26501666  0.65032576  0.02067392    -0.13300
Br1597     Br  0.30644656  0.62785971  0.00738479    -0.05400
Br1598     Br  0.23486330  0.57031173  0.01244233     0.00200
Br1599     Br  0.25634334  0.67367865  0.96014507     0.00700
Br1600     Br  0.26791193  0.64068670  0.04530022    -0.03700
Br1601     Br  0.31350251  0.58233031  0.00878027     0.00800
Br1602     Br  0.22774164  0.61574439  0.00959874    -0.03000
Br1603     Br  0.26002585  0.62834639  0.96700276    -0.03900
Br1604     Br  0.26472762  0.68619355  0.03838550     0.00100
C1605       C  0.43064972  0.38317147  0.63555273     0.01500
C1606       C  0.44552342  0.38886355  0.64681044     0.04300
C1607       C  0.45264331  0.37692014  0.66027383    -0.11700
C1608       C  0.44527522  0.35917933  0.66249842     0.23600
C1609       C  0.43081250  0.35322477  0.65129692    -0.12300
C1610       C  0.42336888  0.36516903  0.63801105     0.05000
C1611       C  0.45248058  0.34689073  0.67700865     0.27500
C1612       C  0.46779184  0.33555869  0.67321932    -0.13000
C1613       C  0.47464766  0.32389240  0.68701543     0.05500
C1614       C  0.46603526  0.32340137  0.70460211    -0.09000
C1615       C  0.45078033  0.33491592  0.70841097     0.06400
C1616       C  0.44402401  0.34665066  0.69459690    -0.13300
Br1617     Br  0.42122601  0.32853129  0.65441644    -0.05400
Br1618     Br  0.45545369  0.41348487  0.64545073     0.00200
Br1619     Br  0.49628749  0.30914799  0.68188354     0.00700
Br1620     Br  0.42294013  0.36221876  0.69951198    -0.03700
Br1621     Br  0.40350013  0.35603294  0.62331483     0.00800
Br1622     Br  0.47222227  0.38489932  0.67628175    -0.03000
Br1623     Br  0.47918655  0.33597236  0.64900518    -0.03900
Br1624     Br  0.43844677  0.33400950  0.73214638     0.00100
C1625       C  0.51653398  0.25953270  0.93943839     0.01500
C1626       C  0.51952511  0.27831260  0.93536343     0.04300
C1627       C  0.51948860  0.28442201  0.91694068    -0.11700
C1628       C  0.51612067  0.27180576  0.90262733     0.23600
C1629       C  0.51291980  0.25305683  0.90674149    -0.12300
C1630       C  0.51321680  0.24691167  0.92513544     0.05000
C1631       C  0.51589770  0.27798611  0.88314589     0.27500
C1632       C  0.49920192  0.28357491  0.87515212    -0.13000
C1633       C  0.49810268  0.28582157  0.85589389     0.05500
C1634       C  0.51376380  0.28246217  0.84464746    -0.09000
C1635       C  0.53081088  0.27833374  0.85287705     0.06400
C1636       C  0.53189230  0.27621574  0.87212439    -0.13300
Br1637     Br  0.50823730  0.23580205  0.88708285    -0.05400
Br1638     Br  0.52351852  0.29562168  0.95513018     0.00200
Br1639     Br  0.47468888  0.29165212  0.84496119     0.00700
Br1640     Br  0.55501254  0.26990173  0.88342599    -0.03700
Br1641     Br  0.50935401  0.22122111  0.93083280     0.00800
Br1642     Br  0.52426404  0.30994210  0.91120949    -0.03000
Br1643     Br  0.47760526  0.28691580  0.89059038    -0.03900
Br1644     Br  0.55257747  0.27492558  0.83769639     0.00100
C1645       C  0.50297119  0.08396504  0.75387546     0.01500
C1646       C  0.50229793  0.09690067  0.76833198     0.04300
C1647       C  0.50066058  0.11572971  0.76424936    -0.11700
C1648       C  0.50055707  0.12164715  0.74571312     0.23600
C1649       C  0.50171353  0.10876697  0.73125511    -0.12300
C1650       C  0.50264368  0.08987909  0.73534006     0.05000
C1651       C  0.49994796  0.14153411  0.74161590     0.27500
C1652       C  0.48287452  0.15060401  0.74011757    -0.13000
C1653       C  0.48230798  0.16993960  0.73905265     0.05500
C1654       C  0.49885181  0.18009156  0.73976922    -0.09000
C1655       C  0.51595248  0.17087593  0.73984666     0.06400
C1656       C  0.51649689  0.15158490  0.74075605    -0.13300
Br1657     Br  0.50218536  0.11712044  0.70596367    -0.05400
Br1658     Br  0.50373446  0.08874718  0.79363452     0.00200
Br1659     Br  0.45884254  0.18241236  0.73815452     0.00700
Br1660     Br  0.53984330  0.13888513  0.74191955    -0.03700
Br1661     Br  0.50351130  0.07204355  0.71561097     0.00800
Br1662     Br  0.49842065  0.13347995  0.78398401    -0.03000
Br1663     Br  0.46033045  0.13651125  0.74083575    -0.03900
Br1664     Br  0.53865649  0.18473327  0.73912030     0.00100
C1665       C  0.57156377  0.01816437  0.76820301     0.01500
C1666       C  0.57889671  0.02260155  0.78559773     0.04300
C1667       C  0.59811973  0.02356840  0.78789375    -0.11700
C1668       C  0.61004508  0.02007534  0.77281433     0.23600
C1669       C  0.60270546  0.01586074  0.75538282    -0.12300
C1670       C  0.58350952  0.01493059  0.75307947     0.05000
C1671       C  0.63033450  0.02043486  0.77522050     0.27500
C1672       C  0.64022235  0.03695858  0.77259125    -0.13000
C1673       C  0.65961747  0.03686766  0.77310436     0.05500
C1674       C  0.66916211  0.02021136  0.77618349    -0.09000
C1675       C  0.65922451  0.00381033  0.77938456     0.06400
C1676       C  0.63984059  0.00395996  0.77906977    -0.13300
Br1677     Br  0.61904303  0.01151283  0.73463499    -0.05400
Br1678     Br  0.56254549  0.02737970  0.80621587     0.00200
Br1679     Br  0.67308375  0.05933763  0.76833201     0.00700
Br1680     Br  0.62619020  0.98154870  0.78351973    -0.03700
Br1681     Br  0.57345893  0.00963514  0.72912488     0.00800
Br1682     Br  0.60823426  0.02973977  0.81160358    -0.03000
Br1683     Br  0.62712407  0.05955016  0.76765706    -0.03900
Br1684     Br  0.67220983  0.98108815  0.78403034     0.00100
C1685       C  0.33862553  0.01412576  0.77326387     0.01500
C1686       C  0.34751021  0.03109872  0.77637199     0.04300
C1687       C  0.36685198  0.03229796  0.77499726    -0.11700
C1688       C  0.37731909  0.01648691  0.77063223     0.23600
C1689       C  0.36842793  0.99953687  0.76754519    -0.12300
C1690       C  0.34912388  0.99834905  0.76883049     0.05000
C1691       C  0.39767165  0.01755495  0.76884258     0.27500
C1692       C  0.40589058  0.02106491  0.75147257    -0.13000
C1693       C  0.42518187  0.02044994  0.74939567     0.05500
C1694       C  0.43630060  0.01633533  0.76469319    -0.09000
C1695       C  0.42809362  0.01333075  0.78216885     0.06400
C1696       C  0.40879920  0.01389034  0.78423256    -0.13300
Br1697     Br  0.38278209  0.97810301  0.76083289    -0.05400
Br1698     Br  0.33312505  0.05266001  0.78250328     0.00200
Br1699     Br  0.43646254  0.02525334  0.72564083     0.00700
Br1700     Br  0.39750721  0.00953211  0.80807423    -0.03700
Br1701     Br  0.33704338  0.97531661  0.76342233     0.00800
Br1702     Br  0.37903836  0.05563353  0.77846072    -0.03000
Br1703     Br  0.39060308  0.02654726  0.73055146    -0.03900
Br1704     Br  0.44339461  0.00877247  0.80329006     0.00100
C1705       C  0.78260059  0.00797396  0.34901728     0.01500
C1706       C  0.78594457  0.02428002  0.35899504     0.04300
C1707       C  0.78344471  0.02452292  0.37825688    -0.11700
C1708       C  0.77745101  0.00851006  0.38752021     0.23600
C1709       C  0.77530154  0.99190513  0.37776634    -0.12300
C1710       C  0.77780919  0.99161919  0.35849405     0.05000
C1711       C  0.77213494  0.00953919  0.40725093     0.27500
C1712       C  0.78535359  0.00648554  0.42097875    -0.13000
C1713       C  0.78044497  0.00859813  0.43966780     0.05500
C1714       C  0.76224845  0.01350077  0.44461694    -0.09000
C1715       C  0.74889476  0.01604685  0.43091850     0.06400
C1716       C  0.75384506  0.01410780  0.41222003    -0.13300
Br1717     Br  0.76816098  0.96980286  0.39084402    -0.05400
Br1718     Br  0.79362430  0.04636988  0.34620685     0.00200
Br1719     Br  0.79867631  0.00513869  0.45854575     0.00700
Br1720     Br  0.73562281  0.01770297  0.39335863    -0.03700
Br1721     Br  0.77309824  0.96917130  0.34508379     0.00800
Br1722     Br  0.78760398  0.04689015  0.39199735    -0.03000
Br1723     Br  0.81010527  0.99939674  0.41407310    -0.03900
Br1724     Br  0.72387864  0.02210019  0.43790020     0.00100
C1725       C  0.77194633  0.02483570  0.67458046     0.01500
C1726       C  0.78091587  0.01174740  0.66332336     0.04300
C1727       C  0.77997614  0.01325629  0.64399530    -0.11700
C1728       C  0.77005427  0.02788057  0.63598507     0.23600
C1729       C  0.76203675  0.04157285  0.64726826    -0.12300
C1730       C  0.76286283  0.03998348  0.66657077     0.05000
C1731       C  0.76638298  0.02787508  0.61592394     0.27500
C1732       C  0.77908007  0.03574599  0.60337020    -0.13000
C1733       C  0.77550818  0.03536450  0.58432748     0.05500
C1734       C  0.75908204  0.02735672  0.57786771    -0.09000
C1735       C  0.74602768  0.02022128  0.59053056     0.06400
C1736       C  0.74983425  0.02016047  0.60949338    -0.13300
Br1737     Br  0.74929058  0.06206353  0.63617214    -0.05400
Br1738     Br  0.79368935  0.99132864  0.67448648     0.00200
Br1739     Br  0.79325069  0.04549529  0.56705841     0.00700
Br1740     Br  0.73255621  0.00917353  0.62672493    -0.03700
Br1741     Br  0.75082107  0.05808089  0.68205951     0.00800
Br1742     Br  0.79153540  0.99491037  0.62847210    -0.03000
Br1743     Br  0.80138343  0.04685154  0.61233553    -0.03900
Br1744     Br  0.72285317  0.01071984  0.58184706     0.00100
C1745       C  0.64154295  0.38891677  0.42527490     0.01500
C1746       C  0.66034133  0.38846138  0.41973085     0.04300
C1747       C  0.67254736  0.37562074  0.42752398    -0.11700
C1748       C  0.66636997  0.36348003  0.44137987     0.23600
C1749       C  0.64785318  0.36402576  0.44733353    -0.12300
C1750       C  0.63545157  0.37669483  0.43943155     0.05000
C1751       C  0.67966902  0.35070707  0.45020911     0.27500
C1752       C  0.68168553  0.33254208  0.44369313    -0.13000
C1753       C  0.69489023  0.32074288  0.45153509     0.05500
C1754       C  0.70581890  0.32688437  0.46638970    -0.09000
C1755       C  0.70376628  0.34517139  0.47284174     0.06400
C1756       C  0.69081683  0.35704153  0.46467182    -0.13300
Br1757     Br  0.63959365  0.34719737  0.46636144    -0.05400
Br1758     Br  0.67034569  0.40629848  0.40274222     0.00200
Br1759     Br  0.69870911  0.29661747  0.44087523     0.00700
Br1760     Br  0.68815025  0.38209452  0.47328676    -0.03700
Br1761     Br  0.61010246  0.37654388  0.44802166     0.00800
Br1762     Br  0.69800483  0.37462803  0.41937484    -0.03000
Br1763     Br  0.66633985  0.32394303  0.42388369    -0.03900
Br1764     Br  0.71797509  0.35396108  0.49339605     0.00100
C1765       C  0.74616843  0.08767892  0.50442470     0.01500
C1766       C  0.72827948  0.09514731  0.50326867     0.04300
C1767       C  0.72581819  0.11436547  0.50278539    -0.11700
C1768       C  0.74127061  0.12608000  0.50310786     0.23600
C1769       C  0.75918336  0.11857510  0.50363695    -0.12300
C1770       C  0.76161394  0.09940604  0.50468961     0.05000
C1771       C  0.73883432  0.14628884  0.50440200     0.27500
C1772       C  0.73745218  0.15707115  0.48830832    -0.13000
C1773       C  0.73752412  0.17643294  0.48958834     0.05500
C1774       C  0.73892296  0.18498015  0.50703159    -0.09000
C1775       C  0.73936015  0.17409840  0.52317125     0.06400
C1776       C  0.73921842  0.15479319  0.52184951    -0.13300
Br1777     Br  0.78035695  0.13465460  0.50333684    -0.05400
Br1778     Br  0.70718291  0.07899041  0.50316122     0.00200
Br1779     Br  0.73725853  0.19103615  0.46730811     0.00700
Br1780     Br  0.74004893  0.13985136  0.54390674    -0.03700
Br1781     Br  0.78599533  0.08916842  0.50738648     0.00800
Br1782     Br  0.70135165  0.12474363  0.50234417    -0.03000
Br1783     Br  0.73620427  0.14519510  0.46453471    -0.03900
Br1784     Br  0.74025692  0.18560626  0.54717148     0.00100
C1785       C  0.84544167  0.28109453  0.51256054     0.01500
C1786       C  0.85465762  0.27354321  0.49708159     0.04300
C1787       C  0.87393096  0.27135393  0.49718928    -0.11700
C1788       C  0.88405600  0.27672933  0.51276881     0.23600
C1789       C  0.87486322  0.28445499  0.52817511    -0.12300
C1790       C  0.85556491  0.28650630  0.52811882     0.05000
C1791       C  0.90435693  0.27414717  0.51304031     0.27500
C1792       C  0.91200093  0.25828419  0.52123584    -0.13000
C1793       C  0.93126302  0.25612444  0.52197134     0.05500
C1794       C  0.94292520  0.26972354  0.51431353    -0.09000
C1795       C  0.93525678  0.28544970  0.50586622     0.06400
C1796       C  0.91601764  0.28763909  0.50521889    -0.13300
Br1797     Br  0.88877400  0.29191029  0.54944199    -0.05400
Br1798     Br  0.84074236  0.26536587  0.47607989     0.00200
Br1799     Br  0.94174277  0.23440057  0.53310233     0.00700
Br1800     Br  0.90553891  0.30900017  0.49340789    -0.03700
Br1801     Br  0.84287842  0.29628132  0.54950939     0.00800
Br1802     Br  0.88649140  0.26051296  0.47623697    -0.03000
Br1803     Br  0.89600243  0.23933901  0.53101217    -0.03900
Br1804     Br  0.95118051  0.30403203  0.49521234     0.00100
C1805       C  0.32582645  0.46978209  0.70336194     0.01500
C1806       C  0.34117213  0.48052359  0.69800432     0.04300
C1807       C  0.35383976  0.47370360  0.68487401    -0.11700
C1808       C  0.35106606  0.45624764  0.67693177     0.23600
C1809       C  0.33557259  0.44563532  0.68198911    -0.12300
C1810       C  0.32303143  0.45229950  0.69531654     0.05000
C1811       C  0.36463949  0.44875365  0.66354013     0.27500
C1812       C  0.36292960  0.45262906  0.64463049    -0.13000
C1813       C  0.37521061  0.44463241  0.63177338     0.05500
C1814       C  0.38896899  0.43215031  0.63782080    -0.09000
C1815       C  0.39070374  0.42859064  0.65692872     0.06400
C1816       C  0.37874178  0.43708849  0.66972542    -0.13300
Br1817     Br  0.33175665  0.42184228  0.67072275    -0.05400
Br1818     Br  0.34457896  0.50482493  0.70822960     0.00200
Br1819     Br  0.37164292  0.44956935  0.60580144     0.00700
Br1820     Br  0.38144157  0.43271945  0.69588852    -0.03700
Br1821     Br  0.30274216  0.43688517  0.70324540     0.00800
Br1822     Br  0.37511277  0.48811632  0.67780614    -0.03000
Br1823     Br  0.34314525  0.46834787  0.63643158    -0.03900
Br1824     Br  0.40951177  0.41244843  0.66609093     0.00100
C1825       C  0.29551431  0.49136885  0.85111243     0.01500
C1826       C  0.29840608  0.47690724  0.86372548     0.04300
C1827       C  0.29875453  0.48059314  0.88278987    -0.11700
C1828       C  0.29661938  0.49883154  0.88920010     0.23600
C1829       C  0.29511869  0.51343506  0.87646241    -0.12300
C1830       C  0.29424731  0.50968098  0.85744950     0.05000
C1831       C  0.29364275  0.50239621  0.90918522     0.27500
C1832       C  0.27547935  0.50398625  0.91615081    -0.13000
C1833       C  0.27232926  0.50660335  0.93514701     0.05500
C1834       C  0.28732796  0.50782097  0.94725705    -0.09000
C1835       C  0.30551421  0.50689467  0.94021850     0.06400
C1836       C  0.30867701  0.50409413  0.92120127    -0.13300
Br1837     Br  0.29309932  0.53845342  0.88525505    -0.05400
Br1838     Br  0.30111801  0.45198958  0.85481585     0.00200
Br1839     Br  0.24745710  0.50844086  0.94466443     0.00700
Br1840     Br  0.33350252  0.50255430  0.91153460    -0.03700
Br1841     Br  0.28977637  0.52943604  0.84021403     0.00800
Br1842     Br  0.30089529  0.46057619  0.90018925    -0.03000
Br1843     Br  0.25487351  0.50244254  0.89959101    -0.03900
Br1844     Br  0.32601053  0.50941510  0.95673338     0.00100
C1845       C  0.08788054  0.50385412  0.76514141     0.01500
C1846       C  0.09552120  0.49566918  0.74918310     0.04300
C1847       C  0.11459863  0.49271929  0.74787316    -0.11700
C1848       C  0.12607014  0.49808814  0.76246136     0.23600
C1849       C  0.11845772  0.50641946  0.77838449    -0.12300
C1850       C  0.09934107  0.50933960  0.77970951     0.05000
C1851       C  0.14614035  0.49486503  0.76094069     0.27500
C1852       C  0.15334229  0.47728515  0.76482681    -0.13000
C1853       C  0.17229327  0.47394574  0.76258818     0.05500
C1854       C  0.18420561  0.48837812  0.75722942    -0.09000
C1855       C  0.17692606  0.50588417  0.75291928     0.06400
C1856       C  0.15787891  0.50910378  0.75477715    -0.13300
Br1857     Br  0.13422416  0.51361805  0.79838153    -0.05400
Br1858     Br  0.07982101  0.48885812  0.72898043     0.00200
Br1859     Br  0.18184578  0.44935629  0.76600426     0.00700
Br1860     Br  0.14779764  0.53311302  0.74933893    -0.03700
Br1861     Br  0.08875931  0.52076497  0.80142504     0.00800
Br1862     Br  0.12510735  0.48126954  0.72612673    -0.03000
Br1863     Br  0.13722829  0.45795191  0.77365815    -0.03900
Br1864     Br  0.19296455  0.52567526  0.74509977     0.00100
C1865       C  0.01302643  0.34719945  0.78549946     0.01500
C1866       C  0.99671871  0.35677175  0.78109900     0.04300
C1867       C  0.99654424  0.37617872  0.78105107    -0.11700
C1868       C  0.01273708  0.38605211  0.78500432     0.23600
C1869       C  0.02881976  0.37651342  0.79007977    -0.12300
C1870       C  0.02893879  0.35712097  0.79040101     0.05000
C1871       C  0.01330790  0.40628893  0.78202615     0.27500
C1872       C  0.01812703  0.41323673  0.76443883    -0.13000
C1873       C  0.01822885  0.43234773  0.76124122     0.05500
C1874       C  0.01384096  0.44461360  0.77569539    -0.09000
C1875       C  0.00913839  0.43769703  0.79332901     0.06400
C1876       C  0.00884238  0.41853684  0.79648743    -0.13300
Br1877     Br  0.05090404  0.39008054  0.79570084    -0.05400
Br1878     Br  0.97512927  0.34343961  0.77341335     0.00200
Br1879     Br  0.02444043  0.44184695  0.73707284     0.00700
Br1880     Br  0.00269882  0.40898269  0.82062726    -0.03700
Br1881     Br  0.05104750  0.34407631  0.79718013     0.00800
Br1882     Br  0.97441746  0.38937820  0.77464297    -0.03000
Br1883     Br  0.02499138  0.39649262  0.74484237    -0.03900
Br1884     Br  0.00352386  0.45456360  0.81316611     0.00100
C1885       C  0.02816129  0.57823908  0.76972264     0.01500
C1886       C  0.02388624  0.59071584  0.75549191     0.04300
C1887       C  0.02525258  0.60978151  0.75858430    -0.11700
C1888       C  0.03072400  0.61640290  0.77596842     0.23600
C1889       C  0.03518629  0.60393718  0.79014540    -0.12300
C1890       C  0.03413010  0.58485791  0.78695697     0.05000
C1891       C  0.03168356  0.63651683  0.77926726     0.27500
C1892       C  0.04847132  0.64595478  0.77665287    -0.13000
C1893       C  0.04905766  0.66526047  0.77837008     0.05500
C1894       C  0.03278863  0.67515086  0.78246770    -0.09000
C1895       C  0.01615650  0.66561349  0.78577981     0.06400
C1896       C  0.01560576  0.64631116  0.78419855    -0.13300
Br1897     Br  0.04236930  0.61309979  0.81399661    -0.05400
Br1898     Br  0.01630915  0.58159082  0.73175601     0.00200
Br1899     Br  0.07190326  0.67820401  0.77397284     0.00700
Br1900     Br  0.99271214  0.63325195  0.78803492    -0.03700
Br1901     Br  0.04070769  0.56775947  0.80622655     0.00800
Br1902     Br  0.01955969  0.62691794  0.73907250    -0.03000
Br1903     Br  0.07038869  0.63243387  0.76971786    -0.03900
Br1904     Br  0.99409935  0.67905517  0.79239164     0.00100
C1905       C  0.00808418  0.76712256  0.45622449     0.01500
C1906       C  0.00206587  0.75217249  0.44547547     0.04300
C1907       C  0.00182144  0.75369756  0.42613084    -0.11700
C1908       C  0.00771748  0.77013208  0.41748767     0.23600
C1909       C  0.01375282  0.78506978  0.42826192    -0.12300
C1910       C  0.01376371  0.78362162  0.44762859     0.05000
C1911       C  0.00746928  0.77160070  0.39705734     0.27500
C1912       C  0.02276631  0.76560836  0.38655821    -0.13000
C1913       C  0.02200482  0.76559922  0.36716207     0.05500
C1914       C  0.00567419  0.77094948  0.35815549    -0.09000
C1915       C  0.99053351  0.77747011  0.36871352     0.06400
C1916       C  0.99158467  0.77808030  0.38811993    -0.13300
Br1917     Br  0.02195734  0.80746613  0.41643203    -0.05400
Br1918     Br  0.99404896  0.72970101  0.45736946     0.00200
Br1919     Br  0.04352183  0.75845241  0.35295161     0.00700
Br1920     Br  0.97104620  0.78713244  0.40265890    -0.03700
Br1921     Br  0.02102318  0.80435055  0.46252852     0.00800
Br1922     Br  0.99334142  0.73331820  0.41140968    -0.03000
Br1923     Br  0.04450169  0.75675967  0.39887974    -0.03900
Br1924     Br  0.96775187  0.78404089  0.35691422     0.00100
C1925       C  0.00832814  0.76923326  0.59130488     0.01500
C1926       C  0.01164943  0.75521071  0.60430670     0.04300
C1927       C  0.01199212  0.75947050  0.62323435    -0.11700
C1928       C  0.00898567  0.77774825  0.62918205     0.23600
C1929       C  0.00548833  0.79172460  0.61620077    -0.12300
C1930       C  0.00522451  0.78748548  0.59727115     0.05000
C1931       C  0.01019000  0.78223611  0.64908171     0.27500
C1932       C  0.99446188  0.78083420  0.66054091    -0.13000
C1933       C  0.99620018  0.78236512  0.67979579     0.05500
C1934       C  0.01367257  0.78530642  0.68762871    -0.09000
C1935       C  0.02914912  0.78822035  0.67600429     0.06400
C1936       C  0.02738377  0.78664054  0.65674006    -0.13300
Br1937     Br  0.00143094  0.81668361  0.62444258    -0.05400
Br1938     Br  0.01601993  0.73029718  0.59607880     0.00200
Br1939     Br  0.97468985  0.78000771  0.69553691     0.00700
Br1940     Br  0.04869179  0.78935645  0.64076651    -0.03700
Br1941     Br  0.00125823  0.80677700  0.57938840     0.00800
Br1942     Br  0.01692513  0.74037858  0.64108032    -0.03000
Br1943     Br  0.97075276  0.77591117  0.64982020    -0.03900
Br1944     Br  0.05310251  0.79274012  0.68634091     0.00100
C1945       C  0.38454077  0.65254913  0.43494136     0.01500
C1946       C  0.37049173  0.64596023  0.44704910     0.04300
C1947       C  0.35712643  0.65817218  0.45424390    -0.11700
C1948       C  0.35799786  0.67710844  0.45008611     0.23600
C1949       C  0.37214786  0.68380787  0.43845244    -0.12300
C1950       C  0.38524702  0.67158779  0.43075232     0.05000
C1951       C  0.34412480  0.68992495  0.45829398     0.27500
C1952       C  0.32821342  0.69475320  0.44839571    -0.13000
C1953       C  0.31444711  0.70575911  0.45675751     0.05500
C1954       C  0.31662077  0.71216883  0.47499150    -0.09000
C1955       C  0.33274325  0.70765654  0.48472721     0.06400
C1956       C  0.34646118  0.69659434  0.47638475    -0.13300
Br1957     Br  0.37352845  0.70985871  0.43318604    -0.05400
Br1958     Br  0.36830937  0.62000183  0.45285842     0.00200
Br1959     Br  0.29276668  0.71237399  0.44307474     0.00700
Br1960     Br  0.36854029  0.69045923  0.48967222    -0.03700
Br1961     Br  0.40448068  0.68139181  0.41510736     0.00800
Br1962     Br  0.33708540  0.64895531  0.46940799    -0.03000
Br1963     Br  0.32539025  0.68628482  0.42334531    -0.03900
Br1964     Br  0.33571641  0.71598476  0.50979407     0.00100
C1965       C  0.17248906  0.74041838  0.52321517     0.01500
C1966       C  0.16257681  0.74281663  0.53993278     0.04300
C1967       C  0.14321987  0.74380724  0.53989018    -0.11700
C1968       C  0.13365845  0.74234989  0.52315795     0.23600
C1969       C  0.14341774  0.73885655  0.50659923    -0.12300
C1970       C  0.16281499  0.73793111  0.50658658     0.05000
C1971       C  0.11350573  0.74583143  0.52284248     0.27500
C1972       C  0.10095520  0.73106679  0.52406070    -0.13000
C1973       C  0.08186818  0.73456043  0.52421272     0.05500
C1974       C  0.07529976  0.75281388  0.52298293    -0.09000
C1975       C  0.08786041  0.76756675  0.52169116     0.06400
C1976       C  0.10692831  0.76409406  0.52172858    -0.13300
Br1977     Br  0.13014668  0.73640990  0.48379716    -0.05400
Br1978     Br  0.17554997  0.74510024  0.56293549     0.00200
Br1979     Br  0.06463868  0.71442419  0.52629296     0.00700
Br1980     Br  0.12412342  0.78435696  0.52057127    -0.03700
Br1981     Br  0.17598384  0.73500450  0.48347495     0.00800
Br1982     Br  0.12971415  0.74805723  0.56260946    -0.03000
Br1983     Br  0.11001948  0.70614053  0.52579727    -0.03900
Br1984     Br  0.07883660  0.79253649  0.52017056     0.00100
C1985       C  0.25358010  0.94851261  0.51086891     0.01500
C1986       C  0.23908504  0.93593371  0.50821594     0.04300
C1987       C  0.24271617  0.91688755  0.50804302    -0.11700
C1988       C  0.26088943  0.91038329  0.51029003     0.23600
C1989       C  0.27543234  0.92301312  0.51256440    -0.12300
C1990       C  0.27173778  0.94204149  0.51307448     0.05000
C1991       C  0.26439414  0.89022825  0.51104995     0.27500
C1992       C  0.26498780  0.88123760  0.52827850    -0.13000
C1993       C  0.26568137  0.86187038  0.52911498     0.05500
C1994       C  0.26637643  0.85140423  0.51269839    -0.09000
C1995       C  0.26669158  0.86048874  0.49544257     0.06400
C1996       C  0.26564071  0.87986581  0.49464123    -0.13300
Br1997     Br  0.30036620  0.91420562  0.51495322    -0.05400
Br1998     Br  0.21427105  0.94487678  0.50512212     0.00200
Br1999     Br  0.26543335  0.84972202  0.55283860     0.00700
Br2000     Br  0.26523060  0.89231394  0.47109045    -0.03700
Br2001     Br  0.29145603  0.95938062  0.51704714     0.00800
Br2002     Br  0.22277428  0.89962406  0.50493225    -0.03000
Br2003     Br  0.26440344  0.89554831  0.55074107    -0.03900
Br2004     Br  0.26702645  0.84644930  0.47282898     0.00100
C2005       C  0.71439513  0.57491907  0.71178629     0.01500
C2006       C  0.70220336  0.58957097  0.71613781     0.04300
C2007       C  0.68803199  0.59434542  0.70391604    -0.11700
C2008       C  0.68627715  0.58497130  0.68703355     0.23600
C2009       C  0.69842790  0.57047259  0.68255053    -0.12300
C2010       C  0.71230001  0.56527831  0.69497595     0.05000
C2011       C  0.67236114  0.59119713  0.67351378     0.27500
C2012       C  0.65492061  0.58284807  0.67295537    -0.13000
C2013       C  0.64169713  0.58898199  0.66023579     0.05500
C2014       C  0.64593003  0.60355959  0.64770669    -0.09000
C2015       C  0.66338173  0.61233759  0.64900245     0.06400
C2016       C  0.67646744  0.60605867  0.66175061    -0.13300
Br2017     Br  0.69619802  0.55803803  0.65913419    -0.05400
Br2018     Br  0.70556527  0.60426202  0.73805222     0.00200
Br2019     Br  0.61719939  0.57851938  0.66187040     0.00700
Br2020     Br  0.70022712  0.61800993  0.66349887    -0.03700
Br2021     Br  0.72791264  0.54449650  0.68907776     0.00800
Br2022     Br  0.67118072  0.61413963  0.70993659    -0.03000
Br2023     Br  0.64905395  0.56341000  0.69028164    -0.03900
Br2024     Br  0.67031907  0.63300684  0.63382227     0.00100
C2025       C  0.95437882  0.51850278  0.75721125     0.01500
C2026       C  0.94143487  0.51874905  0.77183396     0.04300
C2027       C  0.92302905  0.52358927  0.76842278    -0.11700
C2028       C  0.91751199  0.52806028  0.75035426     0.23600
C2029       C  0.93028519  0.52704003  0.73560683    -0.12300
C2030       C  0.94874039  0.52234046  0.73904849     0.05000
C2031       C  0.89857445  0.53496643  0.74721600     0.27500
C2032       C  0.88403887  0.52253047  0.74415497    -0.13000
C2033       C  0.86575387  0.52900759  0.74348446     0.05500
C2034       C  0.86200803  0.54792680  0.74605465    -0.09000
C2035       C  0.87668137  0.56044378  0.74816910     0.06400
C2036       C  0.89494314  0.55399058  0.74862412    -0.13300
Br2037     Br  0.92252448  0.53266521  0.71085842    -0.05400
Br2038     Br  0.94925496  0.51338968  0.79663764     0.00200
Br2039     Br  0.84580281  0.51176476  0.74048279     0.00700
Br2040     Br  0.91501086  0.57106342  0.75204615    -0.03700
Br2041     Br  0.96651118  0.52174259  0.71904579     0.00800
Br2042     Br  0.90547631  0.52482297  0.78859185    -0.03000
Br2043     Br  0.88923124  0.49654419  0.74190315    -0.03900
Br2044     Br  0.87167873  0.58642505  0.75096860     0.00100
C2045       C  0.76474977  0.55826269  0.85449686     0.01500
C2046       C  0.76906692  0.57272138  0.86670827     0.04300
C2047       C  0.76997113  0.56933922  0.88578457    -0.11700
C2048       C  0.76635475  0.55154956  0.89269694     0.23600
C2049       C  0.76121176  0.53729948  0.88063034    -0.12300
C2050       C  0.76055290  0.54059172  0.86151407     0.05000
C2051       C  0.76884794  0.54757863  0.91254234     0.27500
C2052       C  0.78576954  0.54041690  0.91868813    -0.13000
C2053       C  0.78815362  0.53641861  0.93748600     0.05500
C2054       C  0.77377187  0.54000189  0.95020262    -0.09000
C2055       C  0.75688319  0.54725096  0.94407231     0.06400
C2056       C  0.75435659  0.55084969  0.92520930    -0.13300
Br2057     Br  0.75574895  0.51311578  0.89037998    -0.05400
Br2058     Br  0.77378938  0.59718251  0.85728253     0.00200
Br2059     Br  0.81110096  0.52611659  0.94590950     0.00700
Br2060     Br  0.73104978  0.56008088  0.91659684    -0.03700
Br2061     Br  0.75535266  0.52049144  0.84495598     0.00800
Br2062     Br  0.77679759  0.58884468  0.90246346    -0.03000
Br2063     Br  0.80568910  0.53624353  0.90130735    -0.03900
Br2064     Br  0.73720810  0.55207603  0.96155726     0.00100
C2065       C  0.78454533  0.59445194  0.02832939     0.01500
C2066       C  0.76985015  0.60703364  0.02702072     0.04300
C2067       C  0.77328038  0.62601497  0.02852318    -0.11700
C2068       C  0.79149381  0.63238269  0.03061234     0.23600
C2069       C  0.80600722  0.61976209  0.03294165    -0.12300
C2070       C  0.80242671  0.60075972  0.03228522     0.05000
C2071       C  0.79539804  0.65227264  0.02870443     0.27500
C2072       C  0.79703951  0.65996634  0.01091076    -0.13000
C2073       C  0.79771746  0.67917153  0.00874424     0.05500
C2074       C  0.79689142  0.69068463  0.02436762    -0.09000
C2075       C  0.79698471  0.68290592  0.04225267     0.06400
C2076       C  0.79617350  0.66364920  0.04439462    -0.13300
Br2077     Br  0.83083632  0.62857826  0.03607326    -0.05400
Br2078     Br  0.74520029  0.59819672  0.02278179     0.00200
Br2079     Br  0.79944476  0.68979485  0.98434775     0.00700
Br2080     Br  0.79516022  0.65279148  0.06871181    -0.03700
Br2081     Br  0.82199500  0.58330130  0.03647507     0.00800
Br2082     Br  0.75318752  0.64339363  0.02720334    -0.03000
Br2083     Br  0.79760690  0.64410967  0.98951716    -0.03900
Br2084     Br  0.79678375  0.69845556  0.06384833     0.00100
C2085       C  0.78627195  0.36420355  0.99178026     0.01500
C2086       C  0.78109566  0.37592215  0.97721769     0.04300
C2087       C  0.78164800  0.39514541  0.97953651    -0.11700
C2088       C  0.78697446  0.40269664  0.99656817     0.23600
C2089       C  0.79275846  0.39098713  0.01094620    -0.12300
C2090       C  0.79254404  0.37173560  0.00847994     0.05000
C2091       C  0.78556415  0.42287741  0.99955548     0.27500
C2092       C  0.80119514  0.43419825  0.99728238    -0.13000
C2093       C  0.79968655  0.45335152  0.99991382     0.05500
C2094       C  0.78252457  0.46123399  0.00465715    -0.09000
C2095       C  0.76683416  0.44996143  0.00665628     0.06400
C2096       C  0.76834871  0.43080474  0.00412212    -0.13300
Br2097     Br  0.80032846  0.40133775  0.03417677    -0.05400
Br2098     Br  0.77252940  0.36559084  0.95434146     0.00200
Br2099     Br  0.82110548  0.46888993  0.99720120     0.00700
Br2100     Br  0.74682540  0.41536936  0.00675115    -0.03700
Br2101     Br  0.80044398  0.35559362  0.02803476     0.00800
Br2102     Br  0.77464271  0.41124286  0.95958184    -0.03000
Br2103     Br  0.82455110  0.42343084  0.99028127    -0.03900
Br2104     Br  0.74330263  0.46087352  0.01280541     0.00100
C2105       C  0.68162242  0.77698577  0.02504438     0.01500
C2106       C  0.67195285  0.78683542  0.01146453     0.04300
C2107       C  0.65269003  0.78508919  0.01025636    -0.11700
C2108       C  0.64302260  0.77369972  0.02280443     0.23600
C2109       C  0.65266970  0.76385387  0.03640515    -0.12300
C2110       C  0.67196223  0.76539921  0.03744745     0.05000
C2111       C  0.62265673  0.77242025  0.02194448     0.27500
C2112       C  0.61168609  0.78588984  0.03074518    -0.13000
C2113       C  0.59237884  0.78505804  0.02957869     0.05500
C2114       C  0.58395000  0.77041661  0.02002091    -0.09000
C2115       C  0.59495282  0.75660168  0.01172949     0.06400
C2116       C  0.61427852  0.75781734  0.01236960    -0.13300
Br2117     Br  0.63936246  0.74817568  0.05347408    -0.05400
Br2118     Br  0.68520466  0.80224145  0.99414720     0.00200
Br2119     Br  0.57753188  0.80413660  0.04090146     0.00700
Br2120     Br  0.62934600  0.73959513  0.00002718    -0.03700
Br2121     Br  0.68517619  0.75164257  0.05587171     0.00800
Br2122     Br  0.63947695  0.79791221  0.99116600    -0.03000
Br2123     Br  0.62324019  0.80544166  0.04445646    -0.03900
Br2124     Br  0.58352277  0.73567542  0.00005390     0.00100
C2125       C  0.35542391  0.79043642  0.99033389     0.01500
C2126       C  0.36174456  0.79714410  0.00736897     0.04300
C2127       C  0.38070589  0.79674290  0.01127117    -0.11700
C2128       C  0.39328747  0.78963885  0.99812589     0.23600
C2129       C  0.38709615  0.78442909  0.98052468    -0.12300
C2130       C  0.36818471  0.78498845  0.97659692     0.05000
C2131       C  0.41281523  0.78658577  0.00309848     0.27500
C2132       C  0.42620352  0.79999013  0.99880472    -0.13000
C2133       C  0.44487173  0.79653619  0.00254744     0.05500
C2134       C  0.45016626  0.77971397  0.01074942    -0.09000
C2135       C  0.43671803  0.76643113  0.01530607     0.06400
C2136       C  0.41807557  0.76982732  0.01141598    -0.13300
Br2137     Br  0.40443555  0.77544685  0.96224175    -0.05400
Br2138     Br  0.34432587  0.80572498  0.02573322     0.00200
Br2139     Br  0.46330187  0.81459015  0.99591935     0.00700
Br2140     Br  0.39977820  0.75121593  0.01671553    -0.03700
Br2141     Br  0.35955429  0.77775761  0.95257922     0.00800
Br2142     Br  0.38944171  0.80488768  0.03494234    -0.03000
Br2143     Br  0.41889615  0.82277483  0.98723509    -0.03900
Br2144     Br  0.44405016  0.74320937  0.02596393     0.00100
C2145       C  0.71223481  0.46263390  0.31433405     0.01500
C2146       C  0.69499552  0.47161787  0.31467980     0.04300
C2147       C  0.68085299  0.46520661  0.32646122    -0.11700
C2148       C  0.68396348  0.44988693  0.33797780     0.23600
C2149       C  0.70113226  0.44081417  0.33753808    -0.12300
C2150       C  0.71524153  0.44713769  0.32569610     0.05000
C2151       C  0.66928259  0.44334344  0.35074985     0.27500
C2152       C  0.66697479  0.45168305  0.36809443    -0.13000
C2153       C  0.65372127  0.44489775  0.38069590     0.05500
C2154       C  0.64227386  0.42973199  0.37587269    -0.09000
C2155       C  0.64514616  0.42117028  0.35840175     0.06400
C2156       C  0.65844268  0.42812809  0.34592503    -0.13300
Br2157     Br  0.70526993  0.41976752  0.35331963    -0.05400
Br2158     Br  0.69102421  0.49328662  0.29975270     0.00200
Br2159     Br  0.65338372  0.45533653  0.40528047     0.00700
Br2160     Br  0.66220311  0.41671471  0.32203035    -0.03700
Br2161     Br  0.73848017  0.43417661  0.32470654     0.00800
Br2162     Br  0.65726289  0.47749173  0.32707055    -0.03000
Br2163     Br  0.68265459  0.47211761  0.37472149    -0.03900
Br2164     Br  0.63163545  0.39978205  0.35069753     0.00100
C2165       C  0.77866382  0.51663802  0.08272431     0.01500
C2166       C  0.76262660  0.50923491  0.09094109     0.04300
C2167       C  0.76205177  0.50594991  0.11001826    -0.11700
C2168       C  0.77755324  0.50995557  0.12080740     0.23600
C2169       C  0.79347478  0.51768336  0.11264543    -0.12300
C2170       C  0.79400443  0.52110250  0.09357795     0.05000
C2171       C  0.77724425  0.50547395  0.14065977     0.27500
C2172       C  0.77051098  0.51842797  0.15352150    -0.13000
C2173       C  0.76972069  0.51387135  0.17236291     0.05500
C2174       C  0.77580433  0.49641932  0.17829447    -0.09000
C2175       C  0.78277883  0.48357352  0.16543569     0.06400
C2176       C  0.78339598  0.48806302  0.14658630    -0.13300
Br2177     Br  0.81452772  0.52339947  0.12760814    -0.05400
Br2178     Br  0.74146074  0.50377143  0.07601830     0.00200
Br2179     Br  0.76100496  0.53176628  0.19011566     0.00700
Br2180     Br  0.79273888  0.47048612  0.12880030    -0.03700
Br2181     Br  0.81572352  0.53174115  0.08221792     0.00800
Br2182     Br  0.74010584  0.49591260  0.12145493    -0.03000
Br2183     Br  0.76269211  0.54245378  0.14524418    -0.03900
Br2184     Br  0.79143351  0.45982851  0.17366933     0.00100
C2185       C  0.95303547  0.49893209  0.29914585     0.01500
C2186       C  0.94085437  0.49133050  0.28622374     0.04300
C2187       C  0.92179628  0.49247467  0.28934538    -0.11700
C2188       C  0.91489010  0.50183350  0.30501940     0.23600
C2189       C  0.92704685  0.50897769  0.31820101    -0.12300
C2190       C  0.94616138  0.50717599  0.31543222     0.05000
C2191       C  0.89485654  0.50509067  0.30657727     0.27500
C2192       C  0.88688258  0.51902986  0.29575934    -0.13000
C2193       C  0.86778428  0.51919112  0.29306310     0.05500
C2194       C  0.85671771  0.50512682  0.30081205    -0.09000
C2195       C  0.86450291  0.49228120  0.31314720     0.06400
C2196       C  0.88360225  0.49249123  0.31623967    -0.13300
Br2197     Br  0.91749556  0.52197464  0.33944690    -0.05400
Br2198     Br  0.95023942  0.48042525  0.26368116     0.00200
Br2199     Br  0.85690936  0.53826768  0.27806943     0.00700
Br2200     Br  0.89465906  0.47465391  0.33249553    -0.03700
Br2201     Br  0.96303787  0.51627921  0.33365524     0.00800
Br2202     Br  0.90504837  0.48193415  0.27170268    -0.03000
Br2203     Br  0.90241190  0.53684973  0.28330407    -0.03900
Br2204     Br  0.84968008  0.47297393  0.32404186     0.00100
C2205       C  0.42899099  0.65073396  0.38729004     0.01500
C2206       C  0.42249444  0.65244277  0.36895329     0.04300
C2207       C  0.42976860  0.66598124  0.35695022    -0.11700
C2208       C  0.44363233  0.67798849  0.36295576     0.23600
C2209       C  0.45026073  0.67649054  0.38102166    -0.12300
C2210       C  0.44310456  0.66294837  0.39310963     0.05000
C2211       C  0.45123350  0.69216269  0.35011704     0.27500
C2212       C  0.46689152  0.68815513  0.33918524    -0.13000
C2213       C  0.47350929  0.70114419  0.32625313     0.05500
C2214       C  0.46413150  0.71806111  0.32376117    -0.09000
C2215       C  0.44847876  0.72206203  0.33486324     0.06400
C2216       C  0.44233842  0.70931503  0.34828007    -0.13300
Br2217     Br  0.46884075  0.69359654  0.38924642    -0.05400
Br2218     Br  0.40416571  0.63611416  0.35934329     0.00200
Br2219     Br  0.49588756  0.69584613  0.31257471     0.00700
Br2220     Br  0.42163306  0.71517205  0.36418954    -0.03700
Br2221     Br  0.45206343  0.66264489  0.41796249     0.00800
Br2222     Br  0.42070225  0.66834802  0.33205904    -0.03000
Br2223     Br  0.47914313  0.66469759  0.34193611    -0.03900
Br2224     Br  0.43445117  0.74428616  0.33085106     0.00100
C2225       C  0.50809647  0.74809419  0.17975264     0.01500
C2226       C  0.52466372  0.74474335  0.16997786     0.04300
C2227       C  0.52521497  0.74638528  0.15062440    -0.11700
C2228       C  0.50915934  0.75129825  0.14103909     0.23600
C2229       C  0.49230253  0.75326266  0.15066747    -0.12300
C2230       C  0.49176207  0.75173929  0.17002455     0.05000
C2231       C  0.51013445  0.75545261  0.12101718     0.27500
C2232       C  0.51413810  0.77354093  0.11503499    -0.13000
C2233       C  0.51486662  0.77762434  0.09605217     0.05500
C2234       C  0.51115257  0.76372896  0.08306095    -0.09000
C2235       C  0.50708268  0.74568062  0.08905277     0.06400
C2236       C  0.50679710  0.74149384  0.10800252    -0.13300
Br2237     Br  0.47013899  0.75884108  0.13728630    -0.05400
Br2238     Br  0.54660525  0.73809285  0.18321794     0.00200
Br2239     Br  0.52138846  0.80205280  0.08773488     0.00700
Br2240     Br  0.50229905  0.71659374  0.11621011    -0.03700
Br2241     Br  0.46888966  0.75599865  0.18319538     0.00800
Br2242     Br  0.54801900  0.74255447  0.13721945    -0.03000
Br2243     Br  0.51883361  0.79261879  0.13291195    -0.03900
Br2244     Br  0.50239623  0.72662014  0.07115498     0.00100
C2245       C  0.51469180  0.95468605  0.26047646     0.01500
C2246       C  0.52372222  0.94219164  0.24847806     0.04300
C2247       C  0.52289755  0.92312431  0.25201726    -0.11700
C2248       C  0.51280830  0.91644685  0.26736455     0.23600
C2249       C  0.50412064  0.92890755  0.27955499    -0.12300
C2250       C  0.50524081  0.94799176  0.27625668     0.05000
C2251       C  0.51043635  0.89629163  0.27003258     0.27500
C2252       C  0.49517314  0.88734692  0.26220135    -0.13000
C2253       C  0.49329455  0.86811042  0.26378731     0.05500
C2254       C  0.50666532  0.85775994  0.27322595    -0.09000
C2255       C  0.52167107  0.86674253  0.28146834     0.06400
C2256       C  0.52352499  0.88601092  0.27994510    -0.13300
Br2257     Br  0.49041274  0.91968709  0.30058461    -0.05400
Br2258     Br  0.53685230  0.95114141  0.22694088     0.00200
Br2259     Br  0.47261675  0.85585110  0.25268305     0.00700
Br2260     Br  0.54413051  0.89834222  0.29107183    -0.03700
Br2261     Br  0.49409859  0.96500108  0.29355778     0.00800
Br2262     Br  0.53528752  0.90602202  0.23568605    -0.03000
Br2263     Br  0.47709104  0.90151917  0.24893631    -0.03900
Br2264     Br  0.53999280  0.85248127  0.29425216     0.00100
C2265       C  0.56010292  0.71152009  0.70956608     0.01500
C2266       C  0.57645766  0.71430893  0.69923105     0.04300
C2267       C  0.58270995  0.70070205  0.68680047    -0.11700
C2268       C  0.57279866  0.68413131  0.68483100     0.23600
C2269       C  0.55671252  0.68112400  0.69548832    -0.12300
C2270       C  0.55023706  0.69487481  0.70765764     0.05000
C2271       C  0.57987586  0.66955809  0.67218030     0.27500
C2272       C  0.57387844  0.66862918  0.65379941    -0.13000
C2273       C  0.58135955  0.65533825  0.64160115     0.05500
C2274       C  0.59553567  0.64326356  0.64760058    -0.09000
C2275       C  0.60099452  0.64403087  0.66631777     0.06400
C2276       C  0.59307556  0.65696953  0.67850908    -0.13300
Br2277     Br  0.54392826  0.65789715  0.69375511    -0.05400
Br2278     Br  0.59088894  0.73631028  0.70285849     0.00200
Br2279     Br  0.57255163  0.65473598  0.61650805     0.00700
Br2280     Br  0.60030020  0.65765986  0.70411544    -0.03700
Br2281     Br  0.52752622  0.69107449  0.72126093     0.00800
Br2282     Br  0.60517706  0.70443942  0.67277072    -0.03000
Br2283     Br  0.55575660  0.68610612  0.64532737    -0.03900
Br2284     Br  0.61866499  0.62703187  0.67611479     0.00100
C2285       C  0.50541073  0.94937189  0.75505377     0.01500
C2286       C  0.50432406  0.93707104  0.77009151     0.04300
C2287       C  0.50480152  0.91793269  0.76699568    -0.11700
C2288       C  0.50619647  0.91101436  0.74884114     0.23600
C2289       C  0.50720781  0.92330031  0.73379556    -0.12300
C2290       C  0.50685658  0.94245331  0.73690004     0.05000
C2291       C  0.50675918  0.89078589  0.74574367     0.27500
C2292       C  0.52380159  0.88148034  0.74534620    -0.13000
C2293       C  0.52431584  0.86209501  0.74460190     0.05500
C2294       C  0.50773412  0.85193960  0.74407883    -0.09000
C2295       C  0.49070488  0.86133221  0.74373176     0.06400
C2296       C  0.49023178  0.88072289  0.74444160    -0.13300
Br2297     Br  0.50907375  0.91378193  0.70899528    -0.05400
Br2298     Br  0.50222442  0.94653513  0.79490258     0.00200
Br2299     Br  0.54773385  0.84955875  0.74598435     0.00700
Br2300     Br  0.46696740  0.89360924  0.74412914    -0.03700
Br2301     Br  0.50831548  0.95930434  0.71632252     0.00800
Br2302     Br  0.50363390  0.90109454  0.78761173    -0.03000
Br2303     Br  0.54640935  0.89539188  0.74658336    -0.03900
Br2304     Br  0.46798382  0.84759817  0.74260629     0.00100
C2305       C  0.52206032  0.75673001  0.85089126     0.01500
C2306       C  0.50614214  0.75215552  0.86124237     0.04300
C2307       C  0.50634891  0.75319711  0.88060936    -0.11700
C2308       C  0.52241204  0.75898426  0.88964170     0.23600
C2309       C  0.53845335  0.76318518  0.87935876    -0.12300
C2310       C  0.53831084  0.76200814  0.85998140     0.05000
C2311       C  0.52225957  0.76103501  0.90995524     0.27500
C2312       C  0.51706266  0.77797900  0.91796321    -0.13000
C2313       C  0.51615785  0.77973199  0.93726161     0.05500
C2314       C  0.52102322  0.76471806  0.94855780    -0.09000
C2315       C  0.52650359  0.74786468  0.94054783     0.06400
C2316       C  0.52685017  0.74594148  0.92124334    -0.13300
Br2317     Br  0.56040152  0.77104841  0.89190768    -0.05400
Br2318     Br  0.48406833  0.74436685  0.84887379     0.00200
Br2319     Br  0.50790944  0.80253741  0.94830668     0.00700
Br2320     Br  0.53307969  0.72255200  0.91015859    -0.03700
Br2321     Br  0.56006512  0.76864866  0.84592108     0.00800
Br2322     Br  0.48459162  0.74698168  0.89487367    -0.03000
Br2323     Br  0.51100694  0.79868215  0.90243099    -0.03900
Br2324     Br  0.53305020  0.72732242  0.95608251     0.00100
C2325       C  0.64100575  0.64657833  0.60094667     0.01500
C2326       C  0.63821047  0.66571434  0.60331523     0.04300
C2327       C  0.65051778  0.67847736  0.59522995    -0.11700
C2328       C  0.66576769  0.67227333  0.58479256     0.23600
C2329       C  0.66890494  0.65328567  0.58268102    -0.12300
C2330       C  0.65666858  0.64048532  0.59075478     0.05000
C2331       C  0.67853024  0.68577969  0.57605311     0.27500
C2332       C  0.67515800  0.69222178  0.55805802    -0.13000
C2333       C  0.68687610  0.70548952  0.54994393     0.05500
C2334       C  0.70197934  0.71246107  0.55986904    -0.09000
C2335       C  0.70536249  0.70590694  0.57789305     0.06400
C2336       C  0.69380215  0.69241750  0.58584735    -0.13300
Br2337     Br  0.69037154  0.64493093  0.56904711    -0.05400
Br2338     Br  0.61755753  0.67481248  0.61739651     0.00200
Br2339     Br  0.68248261  0.71364939  0.52502131     0.00700
Br2340     Br  0.69878459  0.68294971  0.61020057    -0.03700
Br2341     Br  0.66299417  0.61476277  0.58951274     0.00800
Br2342     Br  0.64664457  0.70461913  0.59841180    -0.03000
Br2343     Br  0.65444702  0.68269468  0.54458785    -0.03900
Br2344     Br  0.72508415  0.71619994  0.59226331     0.00100
C2345       C  0.94058045  0.76402039  0.52467338     0.01500
C2346       C  0.93164277  0.74735199  0.52038791     0.04300
C2347       C  0.91229225  0.74661181  0.52000964    -0.11700
C2348       C  0.90185610  0.76252156  0.52399039     0.23600
C2349       C  0.91079314  0.77926014  0.52801820    -0.12300
C2350       C  0.93014714  0.77998887  0.52844011     0.05000
C2351       C  0.88145771  0.76164908  0.52417386     0.27500
C2352       C  0.87160616  0.76590365  0.50810577    -0.13000
C2353       C  0.85222341  0.76599380  0.50854308     0.05500
C2354       C  0.84260366  0.76187695  0.52511887    -0.09000
C2355       C  0.85254329  0.75711905  0.54108666     0.06400
C2356       C  0.87194114  0.75702847  0.54058468    -0.13300
Br2357     Br  0.89643307  0.80119547  0.53267928    -0.05400
Br2358     Br  0.94600627  0.72556752  0.51509390     0.00200
Br2359     Br  0.83894583  0.77140356  0.48622881     0.00700
Br2360     Br  0.88564948  0.75120626  0.56252278    -0.03700
Br2361     Br  0.94246227  0.80284220  0.53396165     0.00800
Br2362     Br  0.89998891  0.72392815  0.51381358    -0.03000
Br2363     Br  0.88481574  0.77197050  0.48562541    -0.03900
Br2364     Br  0.83980089  0.75194408  0.56404262     0.00100
C2365       C  0.74699733  0.95382832  0.51817860     0.01500
C2366       C  0.72859918  0.94845354  0.52149749     0.04300
C2367       C  0.72401662  0.92965958  0.52239757    -0.11700
C2368       C  0.73790777  0.91623957  0.52035952     0.23600
C2369       C  0.75639784  0.92163949  0.51750058    -0.12300
C2370       C  0.76090951  0.94043162  0.51617480     0.05000
C2371       C  0.73322405  0.89638598  0.52080561     0.27500
C2372       C  0.73325256  0.88672505  0.53768039    -0.13000
C2373       C  0.73164311  0.86740627  0.53777133     0.05500
C2374       C  0.73043335  0.85774838  0.52095928    -0.09000
C2375       C  0.72921384  0.86751169  0.50420820     0.06400
C2376       C  0.73042254  0.88685033  0.50414079    -0.13300
Br2377     Br  0.77546999  0.90320465  0.51519427    -0.05400
Br2378     Br  0.70965977  0.96697237  0.52431630     0.00200
Br2379     Br  0.73252579  0.85405449  0.56078653     0.00700
Br2380     Br  0.72944567  0.90027931  0.48116387    -0.03700
Br2381     Br  0.78597884  0.94789959  0.51117043     0.00800
Br2382     Br  0.69872014  0.92223339  0.52594485    -0.03000
Br2383     Br  0.73695412  0.89989527  0.56046092    -0.03900
Br2384     Br  0.72689637  0.85423331  0.48130086     0.00100
C2385       C  0.09556218  0.88162873  0.89674601     0.01500
C2386       C  0.08162188  0.88640803  0.88390987     0.04300
C2387       C  0.07488319  0.87326619  0.87131730    -0.11700
C2388       C  0.08248346  0.85547951  0.87063366     0.23600
C2389       C  0.09598041  0.85039310  0.88337166    -0.12300
C2390       C  0.10213572  0.86313540  0.89663216     0.05000
C2391       C  0.07652049  0.84219441  0.85624295     0.27500
C2392       C  0.06178524  0.83003893  0.85983781    -0.13000
C2393       C  0.05581203  0.81783546  0.84602582     0.05500
C2394       C  0.06499121  0.81726654  0.82872635    -0.09000
C2395       C  0.08004994  0.82915452  0.82531603     0.06400
C2396       C  0.08565418  0.84171614  0.83896601    -0.13300
Br2397     Br  0.10613921  0.82575671  0.88232924    -0.05400
Br2398     Br  0.07284582  0.91124160  0.88139574     0.00200
Br2399     Br  0.03438488  0.80268377  0.85056179     0.00700
Br2400     Br  0.10602894  0.85818442  0.83416439    -0.03700
Br2401     Br  0.11883037  0.85413861  0.91491351     0.00800
Br2402     Br  0.05544736  0.87961541  0.85441242    -0.03000
Br2403     Br  0.04995467  0.83008532  0.88382952    -0.03900
Br2404     Br  0.09362126  0.82768719  0.80228601     0.00100
C2405       C  0.14228663  0.88365103  0.93964493     0.01500
C2406       C  0.13567180  0.87170267  0.95382505     0.04300
C2407       C  0.14737315  0.85818706  0.96139555    -0.11700
C2408       C  0.16566681  0.85651826  0.95500692     0.23600
C2409       C  0.17243484  0.86858454  0.94135217    -0.12300
C2410       C  0.16085730  0.88201964  0.93365932     0.05000
C2411       C  0.17779965  0.84150088  0.96167017     0.27500
C2412       C  0.18993264  0.84468953  0.97634387    -0.13000
C2413       C  0.20359060  0.83160455  0.98056750     0.05500
C2414       C  0.20566090  0.81559876  0.96960947    -0.09000
C2415       C  0.19308580  0.81220338  0.95524200     0.06400
C2416       C  0.17892766  0.82492980  0.95162227    -0.13300
Br2417     Br  0.19778143  0.86639234  0.93303512    -0.05400
Br2418     Br  0.11013335  0.87222624  0.96178950     0.00200
Br2419     Br  0.21916064  0.83559313  0.00162909     0.00700
Br2420     Br  0.16149779  0.82022937  0.93223923    -0.03700
Br2421     Br  0.17116946  0.89819379  0.91525526     0.00800
Br2422     Br  0.13832301  0.84143008  0.98010884    -0.03000
Br2423     Br  0.18831261  0.86744492  0.99002910    -0.03900
Br2424     Br  0.19617873  0.79119502  0.93916521     0.00100
C2425       C  0.14273497  0.92472639  0.88983967     0.01500
C2426       C  0.15689168  0.93752227  0.89400382     0.04300
C2427       C  0.16917797  0.94345504  0.88007629    -0.11700
C2428       C  0.16747209  0.93677824  0.86197901     0.23600
C2429       C  0.15368212  0.92396045  0.85774319    -0.12300
C2430       C  0.14129938  0.91798281  0.87156238     0.05000
C2431       C  0.17961685  0.94406477  0.84717554     0.27500
C2432       C  0.17450969  0.96020513  0.83775070    -0.13000
C2433       C  0.18634782  0.96777546  0.82427820     0.05500
C2434       C  0.20327269  0.95901542  0.82000155    -0.09000
C2435       C  0.20820990  0.94264198  0.82930319     0.06400
C2436       C  0.19635973  0.93518714  0.84286853    -0.13300
Br2437     Br  0.15157589  0.91506393  0.83270466    -0.05400
Br2438     Br  0.16037399  0.94653010  0.91886639     0.00200
Br2439     Br  0.17965939  0.99076101  0.81264656     0.00700
Br2440     Br  0.20285721  0.91273074  0.85554709    -0.03700
Br2441     Br  0.12178060  0.90166207  0.86453018     0.00800
Br2442     Br  0.18841262  0.96094186  0.88557946    -0.03000
Br2443     Br  0.15123437  0.97193599  0.84350818    -0.03900
Br2444     Br  0.23081776  0.92992002  0.82309063     0.00100
C2445       C  0.09673322  0.93796384  0.94088610     0.01500
C2446       C  0.08283119  0.94876725  0.93231277     0.04300
C2447       C  0.07143584  0.96059546  0.94287766    -0.11700
C2448       C  0.07350829  0.96170994  0.96212606     0.23600
C2449       C  0.08846753  0.95271461  0.97037787    -0.12300
C2450       C  0.10112035  0.94268975  0.95943692     0.05000
C2451       C  0.06042359  0.97311126  0.97331861     0.27500
C2452       C  0.06556969  0.99072108  0.97974586    -0.13000
C2453       C  0.05266612  0.00183564  0.98929780     0.05500
C2454       C  0.03425754  0.99593987  0.99147258    -0.09000
C2455       C  0.02911071  0.97836739  0.98488143     0.06400
C2456       C  0.04228938  0.96680092  0.97639947    -0.13300
Br2457     Br  0.09186866  0.95423569  0.99671936    -0.05400
Br2458     Br  0.08061399  0.94984048  0.90588728     0.00200
Br2459     Br  0.06015066  0.02537762  0.99880293     0.00700
Br2460     Br  0.03551224  0.94227544  0.96868665    -0.03700
Br2461     Br  0.12624971  0.94248877  0.96811409     0.00800
Br2462     Br  0.05299093  0.97564258  0.93102141    -0.03000
Br2463     Br  0.08999646  0.00005785  0.97456084    -0.03900
Br2464     Br  0.00397165  0.96994201  0.98742362     0.00100
C2465       C  0.88967725  0.88737497  0.10697727     0.01500
C2466       C  0.89378340  0.87288331  0.09446304     0.04300
C2467       C  0.87952719  0.86305568  0.08588351    -0.11700
C2468       C  0.86102435  0.86686575  0.09041234     0.23600
C2469       C  0.85679197  0.88057481  0.10348681    -0.12300
C2470       C  0.87100622  0.89079169  0.11175053     0.05000
C2471       C  0.84609307  0.85546328  0.08246161     0.27500
C2472       C  0.83827531  0.86019219  0.06536625    -0.13000
C2473       C  0.82487720  0.84868795  0.05744472     0.05500
C2474       C  0.81904318  0.83262453  0.06677852    -0.09000
C2475       C  0.82637072  0.82830425  0.08420542     0.06400
C2476       C  0.83996140  0.83961891  0.09195971    -0.13300
Br2477     Br  0.83131609  0.88514649  0.11006024    -0.05400
Br2478     Br  0.91879802  0.86456073  0.09079897     0.00200
Br2479     Br  0.81529329  0.85433513  0.03336293     0.00700
Br2480     Br  0.85052596  0.83327855  0.11547067    -0.03700
Br2481     Br  0.86432983  0.90913611  0.12963191     0.00800
Br2482     Br  0.88526018  0.84400767  0.06810743    -0.03000
Br2483     Br  0.84622584  0.88226018  0.05274609    -0.03900
Br2484     Br  0.81767424  0.80691041  0.09755150     0.00100
C2485       C  0.82601443  0.97032394  0.20758693     0.01500
C2486       C  0.84344481  0.97907784  0.20801689     0.04300
C2487       C  0.85803977  0.97279055  0.19658946    -0.11700
C2488       C  0.85532997  0.95785951  0.18449643     0.23600
C2489       C  0.83779709  0.94956015  0.18356267    -0.12300
C2490       C  0.82323684  0.95566448  0.19509383     0.05000
C2491       C  0.87096031  0.95034986  0.17317699     0.27500
C2492       C  0.87334397  0.95574219  0.15461994    -0.13000
C2493       C  0.88665954  0.94695910  0.14329095     0.05500
C2494       C  0.89804814  0.93284816  0.15062094    -0.09000
C2495       C  0.89640345  0.92843947  0.16957919     0.06400
C2496       C  0.88278834  0.93696810  0.18070790    -0.13300
Br2497     Br  0.83389250  0.92939872  0.16671964    -0.05400
Br2498     Br  0.84730408  0.00018851  0.22371172     0.00200
Br2499     Br  0.88758603  0.95315505  0.11731206     0.00700
Br2500     Br  0.87995538  0.93003052  0.20631150    -0.03700
Br2501     Br  0.79989344  0.94294989  0.19450367     0.00800
Br2502     Br  0.88188332  0.98448165  0.19752282    -0.03000
Br2503     Br  0.85781091  0.97484429  0.14465789    -0.03900
Br2504     Br  0.91315854  0.91119850  0.18070085     0.00100
C2505       C  0.93494044  0.87880849  0.15134980     0.01500
C2506       C  0.95032143  0.88181933  0.16297870     0.04300
C2507       C  0.95624338  0.86806027  0.17535323    -0.11700
C2508       C  0.94689429  0.85113959  0.17657948     0.23600
C2509       C  0.93139225  0.84808694  0.16550080    -0.12300
C2510       C  0.92530235  0.86181192  0.15309936     0.05000
C2511       C  0.95321205  0.83670479  0.18982563     0.27500
C2512       C  0.96840629  0.82535589  0.18533867    -0.13000
C2513       C  0.97472493  0.81211260  0.19807737     0.05500
C2514       C  0.96564947  0.80982690  0.21529732    -0.09000
C2515       C  0.95033063  0.82111990  0.21969896     0.06400
C2516       C  0.94430038  0.83463285  0.20710880    -0.13300
Br2517     Br  0.91869904  0.82472185  0.16725426    -0.05400
Br2518     Br  0.96276797  0.90525438  0.16358115     0.00200
Br2519     Br  0.99654724  0.79793423  0.19228103     0.00700
Br2520     Br  0.92396508  0.85062028  0.21360976    -0.03700
Br2521     Br  0.90393566  0.85639555  0.13858371     0.00800
Br2522     Br  0.97718726  0.87238444  0.19103023    -0.03000
Br2523     Br  0.98071616  0.82821248  0.16174679    -0.03900
Br2524     Br  0.93701839  0.81769366  0.24267307     0.00100
C2525       C  0.94841669  0.92681823  0.10120378     0.01500
C2526       C  0.96009851  0.94072463  0.10867446     0.04300
C2527       C  0.97053474  0.95231593  0.09689492    -0.11700
C2528       C  0.96948743  0.95033719  0.07765300     0.23600
C2529       C  0.96021894  0.93509957  0.07029993    -0.12300
C2530       C  0.95097913  0.92264003  0.08211584     0.05000
C2531       C  0.97783799  0.96447261  0.06521787     0.27500
C2532       C  0.96878257  0.98139016  0.06282477    -0.13000
C2533       C  0.97658462  0.99503729  0.05142401     0.05500
C2534       C  0.99236376  0.99118160  0.04030326    -0.09000
C2535       C  0.00200940  0.97441185  0.04355359     0.06400
C2536       C  0.99487575  0.96135057  0.05626294    -0.13300
Br2537     Br  0.96019588  0.93131740  0.04388698    -0.05400
Br2538     Br  0.96315911  0.94385313  0.13491441     0.00200
Br2539     Br  0.96677293  0.01966945  0.05332832     0.00700
Br2540     Br  0.00830912  0.93898863  0.06155884    -0.03700
Br2541     Br  0.94672189  0.89834034  0.07242842     0.00800
Br2542     Br  0.98633181  0.97119211  0.10690191    -0.03000
Br2543     Br  0.94530374  0.98572109  0.07496073    -0.03900
Br2544     Br  0.02496015  0.96857183  0.03129220     0.00100
C2545       C  0.87780832  0.10013046  0.87566196     0.01500
C2546       C  0.86102575  0.09350126  0.88334929     0.04300
C2547       C  0.84732150  0.08598835  0.87200065    -0.11700
C2548       C  0.85015302  0.08507795  0.85283098     0.23600
C2549       C  0.86638763  0.09226652  0.84492111    -0.12300
C2550       C  0.87991964  0.10021539  0.85619442     0.05000
C2551       C  0.83569280  0.07741957  0.84076746     0.27500
C2552       C  0.83583167  0.05855782  0.83616621    -0.13000
C2553       C  0.82292786  0.05161598  0.82361165     0.05500
C2554       C  0.80978160  0.06350803  0.81578139    -0.09000
C2555       C  0.80950226  0.08231813  0.82056404     0.06400
C2556       C  0.82236075  0.08924044  0.83315904    -0.13300
Br2557     Br  0.86990876  0.09114413  0.81844436    -0.05400
Br2558     Br  0.85559214  0.09625081  0.90914037     0.00200
Br2559     Br  0.82325980  0.02583510  0.81708684     0.00700
Br2560     Br  0.82194031  0.11496165  0.83990882    -0.03700
Br2561     Br  0.90061812  0.11177416  0.84433856     0.00800
Br2562     Br  0.82438403  0.07716834  0.88254069    -0.03000
Br2563     Br  0.85380652  0.04235167  0.84701906    -0.03900
Br2564     Br  0.79215687  0.09877633  0.80908001     0.00100
C2565       C  0.88430854  0.15004485  0.91323539     0.01500
C2566       C  0.87274362  0.14896648  0.92934947     0.04300
C2567       C  0.86243211  0.16433109  0.93537191    -0.11700
C2568       C  0.86318889  0.18098315  0.92559285     0.23600
C2569       C  0.87409761  0.18235410  0.90957107    -0.12300
C2570       C  0.88402868  0.16692765  0.90290360     0.05000
C2571       C  0.85124195  0.19660799  0.93148219     0.27500
C2572       C  0.83356649  0.19852529  0.92390005    -0.13000
C2573       C  0.82149898  0.21224965  0.93052690     0.05500
C2574       C  0.82689425  0.22391718  0.94512734    -0.09000
C2575       C  0.84487901  0.22232915  0.95230798     0.06400
C2576       C  0.85707146  0.20883760  0.94531312    -0.13300
Br2577     Br  0.87534987  0.20587582  0.89694996    -0.05400
Br2578     Br  0.86885978  0.12632623  0.94296972     0.00200
Br2579     Br  0.79783977  0.21533932  0.91896166     0.00700
Br2580     Br  0.88170998  0.20672219  0.95483924    -0.03700
Br2581     Br  0.89596291  0.17026373  0.87919024     0.00800
Br2582     Br  0.84680676  0.16274132  0.95717558    -0.03000
Br2583     Br  0.82582599  0.18200034  0.90459506    -0.03900
Br2584     Br  0.85258119  0.23760277  0.97260561     0.00100
C2585       C  0.97598894  0.20100202  0.81364032     0.01500
C2586       C  0.98772397  0.19073360  0.82512622     0.04300
C2587       C  0.98030895  0.17735392  0.83719322    -0.11700
C2588       C  0.96115610  0.17414096  0.83768770     0.23600
C2589       C  0.94946262  0.18423770  0.82601357    -0.12300
C2590       C  0.95686828  0.19766577  0.81402618     0.05000
C2591       C  0.95309869  0.16079478  0.85104688     0.27500
C2592       C  0.95159535  0.14197853  0.84648857    -0.13000
C2593       C  0.94266874  0.12974350  0.85877557     0.05500
C2594       C  0.93386901  0.13666118  0.87480132    -0.09000
C2595       C  0.93817341  0.15467341  0.88069241     0.06400
C2596       C  0.94716738  0.16692633  0.86856034    -0.13300
Br2597     Br  0.92324306  0.17980294  0.82674679    -0.05400
Br2598     Br  0.01391347  0.19521029  0.82446445     0.00200
Br2599     Br  0.94485951  0.10350138  0.85499515     0.00700
Br2600     Br  0.95121824  0.19217172  0.87581186    -0.03700
Br2601     Br  0.94083017  0.21166709  0.79823737     0.00800
Br2602     Br  0.99623168  0.16366939  0.85337376    -0.03000
Br2603     Br  0.96165114  0.13309707  0.82341367    -0.03900
Br2604     Br  0.93378175  0.16202129  0.90598259     0.00100
C2605       C  0.92423592  0.09419258  0.92884080     0.01500
C2606       C  0.91504370  0.07926135  0.93784146     0.04300
C2607       C  0.92489181  0.06709637  0.94934484    -0.11700
C2608       C  0.94372128  0.07002766  0.95263307     0.23600
C2609       C  0.95225483  0.08600776  0.94574500    -0.12300
C2610       C  0.94213999  0.09874906  0.93529087     0.05000
C2611       C  0.95397448  0.05766385  0.96530836     0.27500
C2612       C  0.95553651  0.06233306  0.98404623    -0.13000
C2613       C  0.96602095  0.05123021  0.99595482     0.05500
C2614       C  0.97619603  0.03589865  0.98889705    -0.09000
C2615       C  0.97143667  0.02950735  0.97099210     0.06400
C2616       C  0.96134441  0.04088845  0.95896040    -0.13300
Br2617     Br  0.97794118  0.09048431  0.95080505    -0.05400
Br2618     Br  0.88858127  0.07712940  0.93814512     0.00200
Br2619     Br  0.96407374  0.05624657  0.02208653     0.00700
Br2620     Br  0.95761218  0.03361420  0.93365098    -0.03700
Br2621     Br  0.95179224  0.12353576  0.93350433     0.00800
Br2622     Br  0.91254194  0.04662197  0.96127763    -0.03000
Br2623     Br  0.94325224  0.08417224  0.99330510    -0.03900
Br2624     Br  0.97459354  0.00400851  0.96403470     0.00100
C2625       C  0.21314782  0.20486007  0.06253094     0.01500
C2626       C  0.19596346  0.20420489  0.05358103     0.04300
C2627       C  0.18217631  0.19189350  0.05973815    -0.11700
C2628       C  0.18555054  0.17996487  0.07468112     0.23600
C2629       C  0.20274802  0.18042762  0.08351066    -0.12300
C2630       C  0.21652412  0.19279115  0.07745821     0.05000
C2631       C  0.17089716  0.16721896  0.08151284     0.27500
C2632       C  0.15929711  0.17261736  0.09615356    -0.13000
C2633       C  0.14628169  0.16019363  0.10369353     0.05500
C2634       C  0.14422494  0.14215499  0.09624538    -0.09000
C2635       C  0.15604580  0.13701412  0.08128023     0.06400
C2636       C  0.16918325  0.14948737  0.07400340    -0.13300
Br2637     Br  0.20717596  0.16428808  0.10421684    -0.05400
Br2638     Br  0.19155067  0.21946211  0.03224580     0.00200
Br2639     Br  0.13177556  0.16888630  0.12420117     0.00700
Br2640     Br  0.18531579  0.14232373  0.05382575    -0.03700
Br2641     Br  0.23970891  0.19359021  0.09023468     0.00800
Br2642     Br  0.15849708  0.19144263  0.04791673    -0.03000
Br2643     Br  0.16143305  0.19739271  0.10576915    -0.03900
Br2644     Br  0.15618815  0.11240328  0.07154318     0.00100
C2645       C  0.14227586  0.09307979  0.13928766     0.01500
C2646       C  0.16147701  0.09640432  0.13851962     0.04300
C2647       C  0.17321443  0.08841125  0.15163890    -0.11700
C2648       C  0.16594862  0.07704303  0.16566665     0.23600
C2649       C  0.14698007  0.07307062  0.16616646    -0.12300
C2650       C  0.13516720  0.08082501  0.15291881     0.05000
C2651       C  0.17836770  0.06958435  0.18003938     0.27500
C2652       C  0.18717213  0.05246033  0.17740587    -0.13000
C2653       C  0.20002050  0.04607880  0.19036415     0.05500
C2654       C  0.20426754  0.05690513  0.20591187    -0.09000
C2655       C  0.19518173  0.07390357  0.20870785     0.06400
C2656       C  0.18214843  0.08014045  0.19586876    -0.13300
Br2657     Br  0.13722182  0.05740891  0.18548703    -0.05400
Br2658     Br  0.17223127  0.11107118  0.11907606     0.00200
Br2659     Br  0.21146876  0.02228338  0.18702856     0.00700
Br2660     Br  0.16964524  0.10334334  0.19968063    -0.03700
Br2661     Br  0.10908628  0.07548807  0.15463969     0.00800
Br2662     Br  0.19942693  0.09305277  0.15058937    -0.03000
Br2663     Br  0.18177002  0.03795540  0.15583542    -0.03900
Br2664     Br  0.20135451  0.08923671  0.22949722     0.00100
C2665       C  0.06134839  0.20147522  0.21252682     0.01500
C2666       C  0.08023657  0.20322339  0.20797911     0.04300
C2667       C  0.08816980  0.19215762  0.19402307    -0.11700
C2668       C  0.07742249  0.17884571  0.18492142     0.23600
C2669       C  0.05863113  0.17683922  0.18970947    -0.12300
C2670       C  0.05054467  0.18829501  0.20326044     0.05000
C2671       C  0.08594110  0.16659721  0.17067448     0.27500
C2672       C  0.08277511  0.16970640  0.15178236    -0.13000
C2673       C  0.08967068  0.15727630  0.13841679     0.05500
C2674       C  0.10091995  0.14219064  0.14376078    -0.09000
C2675       C  0.10503693  0.13996047  0.16270248     0.06400
C2676       C  0.09699691  0.15164551  0.17608621    -0.13300
Br2677     Br  0.04403329  0.15816462  0.17780103    -0.05400
Br2678     Br  0.09554720  0.22010068  0.22153530     0.00200
Br2679     Br  0.08454955  0.16193219  0.11266664     0.00700
Br2680     Br  0.10057961  0.14686751  0.20206962    -0.03700
Br2681     Br  0.02445824  0.18641883  0.20843870     0.00800
Br2682     Br  0.11381097  0.19520451  0.18732914    -0.03000
Br2683     Br  0.06917714  0.19129179  0.14430080    -0.03900
Br2684     Br  0.12142517  0.12096667  0.17094519     0.00100
C2685       C  0.02897540  0.04423689  0.03437428     0.01500
C2686       C  0.03303703  0.03878008  0.05269135     0.04300
C2687       C  0.04590539  0.04870172  0.06316326    -0.11700
C2688       C  0.05315708  0.06549366  0.05654008     0.23600
C2689       C  0.04836922  0.07167304  0.03880698    -0.12300
C2690       C  0.03719084  0.06070161  0.02738124     0.05000
C2691       C  0.06607669  0.07633523  0.06822912     0.27500
C2692       C  0.05959544  0.08495024  0.08442329    -0.13000
C2693       C  0.07210150  0.09218633  0.09726998     0.05500
C2694       C  0.09106368  0.09462357  0.09235527    -0.09000
C2695       C  0.09755650  0.08463080  0.07663393     0.06400
C2696       C  0.08515505  0.07575836  0.06464961    -0.13300
Br2697     Br  0.05718089  0.09533852  0.03025996    -0.05400
Br2698     Br  0.01997301  0.01892173  0.06472931     0.00200
Br2699     Br  0.06384870  0.09148150  0.12278161     0.00700
Br2700     Br  0.09430310  0.06200360  0.04357919    -0.03700
Br2701     Br  0.03472045  0.06807594  0.00183204     0.00800
Br2702     Br  0.05396567  0.03902280  0.08661777    -0.03000
Br2703     Br  0.03340700  0.08599542  0.08951295    -0.03900
Br2704     Br  0.12337502  0.07980132  0.07286357     0.00100
loop_ 
_geom_bond_atom_site_label_1 
_geom_bond_atom_site_label_2 
_geom_bond_distance 
_geom_bond_site_symmetry_2 
_ccdc_geom_bond_type 
C1            C2   1.544       .  S
C1            C7   1.533       .  S
C1            C5   1.552       .  S
C1         C2694   1.560       .  S
C2            H9   1.080       .  S
C2            C3   1.363       .  D
C3            C4   1.547       .  S
C3         C2674   1.504       .  S
C4            C8   1.547       .  S
C4            C6   1.554       .  S
C4           H10   1.109       .  S
C5           H11   1.085       .  S
C5            C6   1.379       .  D
C6         C2634   1.518       .  S
C7           H12   1.086       .  S
C7            C8   1.363       .  D
C8         C2645   1.498       .  S
C13          C14   1.549       .  S
C13          C19   1.540       .  S
C13          C17   1.534       .  S
C13        C2605   1.552       .  S
C14          H21   1.084       .  S
C14          C15   1.369       .  D
C15          C16   1.540       .  S
C15        C2545   1.504       .  S
C16          C20   1.548       .  S
C16          C18   1.559       .  S
C16          H22   1.100       .  S
C17          H23   1.085       .  S
C17          C18   1.355       .  D
C18        C2594   1.487       .  S
C19          H24   1.084       .  S
C19          C20   1.376       .  D
C20        C2565   1.524       .  S
C25          C26   1.543       .  S
C25          C31   1.547       .  S
C25          C29   1.539       .  S
C25        C2525   1.558       .  S
C26          H33   1.085       .  S
C26          C27   1.365       .  D
C27          C28   1.548       .  S
C27        C2494   1.501       .  S
C28          C32   1.547       .  S
C28          C30   1.551       .  S
C28          H34   1.108       .  S
C29          H35   1.086       .  S
C29          C30   1.373       .  D
C30        C2505   1.514       .  S
C31          H36   1.082       .  S
C31          C32   1.369       .  D
C32        C2465   1.502       .  S
C37          C38   1.554       .  S
C37          C43   1.530       .  S
C37          C41   1.543       .  S
C37        C2445   1.556       .  S
C38          H45   1.085       .  S
C38          C39   1.380       .  D
C39          C40   1.550       .  S
C39        C2385   1.517       .  S
C40          C44   1.544       .  S
C40          C42   1.545       .  S
C40          H46   1.109       .  S
C41          H47   1.079       .  S
C41          C42   1.362       .  D
C42        C2405   1.500       .  S
C43          H48   1.086       .  S
C43          C44   1.361       .  D
C44        C2425   1.494       .  S
C49          C50   1.542   1_655  S
C49          C55   1.533       .  S
C49          C53   1.544   1_654  S
C49        C2614   1.553   1_554  S
C50          H57   1.083       .  S
C50          C51   1.366       .  D
C51          C52   1.547       .  S
C51        C2685   1.507       .  S
C52          C56   1.553   1_455  S
C52          C54   1.542   1_554  S
C52          H58   1.105       .  S
C53          H59   1.083       .  S
C53          C54   1.364       .  D
C54        C2454   1.490   1_545  S
C55          H60   1.086       .  S
C55          C56   1.373       .  D
C56        C2534   1.511   1_545  S
N61          N62   1.322       .  A
N61          C65   1.350       .  A
N61         Cu69   2.085       .  S
N62          C63   1.339       .  A
N62         Cu68   2.055       .  S
C63          C64   1.376       .  A
C63          H66   1.082       .  S
C64          C65   1.386       .  A
C64        C2374   1.472       .  S
C65          H67   1.082       .  S
Cu68         N71   2.056       .  S
Cu69         N79   2.086       .  S
Cu70         N72   2.082       .  S
Cu70         N78   2.083       .  S
N71          N72   1.320       .  A
N71          C75   1.341       .  A
N72          C73   1.348       .  A
C73          C74   1.388       .  A
C73          H76   1.082       .  S
C74          C75   1.381       .  A
C74        C2354   1.480       .  S
C75          H77   1.082       .  S
N78          N79   1.325       .  A
N78          C82   1.345       .  A
N79          C80   1.347       .  A
C80          C81   1.384       .  A
C80          H83   1.082       .  S
C81          C82   1.383       .  A
C81        C2334   1.482       .  S
C82          H84   1.082       .  S
N85          N86   1.321       .  A
N85          C89   1.347       .  A
N85         Cu93   2.075       .  S
N86          C87   1.342       .  A
N86         Cu92   2.060       .  S
C87          C88   1.379       .  A
C87          H90   1.082       .  S
C88          C89   1.384       .  A
C88        C2305   1.473       .  S
C89          H91   1.082       .  S
Cu92         N95   2.060       .  S
Cu93        N103   2.076       .  S
Cu94         N96   2.088       .  S
Cu94        N102   2.089       .  S
N95          N96   1.322       .  A
N95          C99   1.342       .  A
N96          C97   1.349       .  A
C97          C98   1.388       .  A
C97         H100   1.082       .  S
C98          C99   1.379       .  A
C98        C2294   1.480       .  S
C99         H101   1.082       .  S
N102        N103   1.325       .  A
N102        C106   1.347       .  A
N103        C104   1.345       .  A
C104        C105   1.382       .  A
C104        H107   1.082       .  S
C105        C106   1.384       .  A
C105       C2265   1.480       .  S
C106        H108   1.082       .  S
N109        N110   1.322       .  A
N109        C113   1.350       .  A
N109       Cu117   2.092       .  S
N110        C111   1.342       .  A
N110       Cu116   2.057       .  S
C111        C112   1.377       .  A
C111        H114   1.082       .  S
C112        C113   1.387       .  A
C112       C2254   1.475       .  S
C113        H115   1.082       .  S
Cu116       N119   2.056       .  S
Cu117       N127   2.093       .  S
Cu118       N120   2.080       .  S
Cu118       N126   2.081       .  S
N119        N120   1.321       .  A
N119        C123   1.341       .  A
N120        C121   1.348       .  A
C121        C122   1.387       .  A
C121        H124   1.082       .  S
C122        C123   1.379       .  A
C122       C2225   1.475       .  S
C123        H125   1.082       .  S
N126        N127   1.325       .  A
N126        C130   1.345       .  A
N127        C128   1.348       .  A
C128        C129   1.387       .  A
C128        H131   1.082       .  S
C129        C130   1.384       .  A
C129       C2214   1.487       .  S
C130        H132   1.082       .  S
N133        N134   1.320       .  A
N133        C137   1.347       .  A
N133       Cu141   2.066       .  S
N134        C135   1.338       .  A
N134       Cu140   2.049       .  S
C135        C136   1.379       .  A
C135        H138   1.082       .  S
C136        C137   1.385       .  A
C136       C2194   1.473       .  S
C137        H139   1.082       .  S
Cu140       N143   2.049       .  S
Cu141       N151   2.068       .  S
Cu142       N144   2.075       .  S
Cu142       N150   2.077       .  S
N143        N144   1.321       .  A
N143        C147   1.340       .  A
N144        C145   1.346       .  A
C145        C146   1.384       .  A
C145        H148   1.082       .  S
C146        C147   1.376       .  A
C146       C2174   1.467       .  S
C147        H149   1.082       .  S
N150        N151   1.324       .  A
N150        C154   1.345       .  A
N151        C152   1.343       .  A
C152        C153   1.379       .  A
C152        H155   1.082       .  S
C153        C154   1.382       .  A
C153       C2145   1.474       .  S
C154        H156   1.082       .  S
N157        C162   1.352   1_556  A
N157        C161   1.350       .  A
N157        H189   1.040   1_556  S
N158        C165   1.348       .  A
N158        C166   1.348       .  A
N159        C164   1.350       .  A
N159        C163   1.353       .  A
N159        H190   1.038       .  S
N160        C167   1.350       .  A
N160        C168   1.349       .  A
C161        C169   1.386       .  A
C161        C177   1.411       .  A
C162        C178   1.415       .  A
C162        C170   1.388   1_554  A
C163        C171   1.388       .  A
C163        C180   1.417       .  A
C164        C179   1.413       .  A
C164        C172   1.386       .  A
C165        C177   1.409       .  A
C165        C173   1.386       .  A
C166        C180   1.410   1_556  A
C166        C174   1.386       .  A
C167        C175   1.385       .  A
C167        C178   1.410       .  A
C168        C176   1.387       .  A
C168        C179   1.412       .  A
C169        C170   1.378       .  A
C169        H181   1.082       .  S
C170        H182   1.082       .  S
C171        C172   1.381       .  A
C171        H183   1.082       .  S
C172        H184   1.082       .  S
C173        C174   1.373       .  A
C173        H185   1.082       .  S
C174        H186   1.082       .  S
C175        C176   1.373       .  A
C175        H187   1.082       .  S
C176        H188   1.082       .  S
C177       C2314   1.483       .  S
C178       C2114   1.489       .  S
C179       C2234   1.484       .  S
C180       C2134   1.487       .  S
N191        C196   1.348       .  A
N191        C195   1.350       .  A
N191        H223   1.038       .  S
N192        C199   1.351       .  A
N192        C200   1.349   1_554  A
N193        C198   1.353       .  A
N193        C197   1.351       .  A
N193        H224   1.038   1_556  S
N194        C201   1.349       .  A
N194        C202   1.350       .  A
C195        C203   1.385       .  A
C195        C211   1.406       .  A
C196        C212   1.410       .  A
C196        C204   1.388       .  A
C197        C205   1.388       .  A
C197        C214   1.415       .  A
C198        C213   1.413   1_556  A
C198        C206   1.386       .  A
C199        C211   1.411       .  A
C199        C207   1.386   1_554  A
C200        C214   1.411       .  A
C200        C208   1.387       .  A
C201        C209   1.386       .  A
C201        C212   1.410       .  A
C202        C210   1.386       .  A
C202        C213   1.411       .  A
C203        C204   1.374       .  A
C203        H215   1.082       .  S
C204        H216   1.082       .  S
C205        C206   1.376       .  A
C205        H217   1.082       .  S
C206        H218   1.082       .  S
C207        C208   1.373       .  A
C207        H219   1.083       .  S
C208        H220   1.082       .  S
C209        C210   1.372       .  A
C209        H221   1.082       .  S
C210        H222   1.082       .  S
C211       C2065   1.481       .  S
C212       C2165   1.478       .  S
C213       C2094   1.486       .  S
C214       C2054   1.483       .  S
N225        N226   1.323       .  A
N225        C229   1.350       .  A
N225       Cu233   2.097       .  S
N226        C227   1.342       .  A
N226       Cu232   2.058       .  S
C227        C228   1.376       .  A
C227        H230   1.082       .  S
C228        C229   1.387       .  A
C228       C2105   1.476       .  S
C229        H231   1.082       .  S
Cu232       N235   2.057       .  S
Cu233       N243   2.098       .  S
Cu234       N236   2.061       .  S
Cu234       N242   2.063       .  S
N235        N236   1.319       .  A
N235        C239   1.340       .  A
N236        C237   1.346       .  A
C237        C238   1.384       .  A
C237        H240   1.082       .  S
C238        C239   1.380       .  A
C238       C2074   1.472       .  S
C239        H241   1.082       .  S
N242        N243   1.325       .  A
N242        C246   1.341       .  A
N243        C244   1.350       .  A
C244        C245   1.386       .  A
C244        H247   1.082       .  S
C245        C246   1.377       .  A
C245       C2474   1.477       .  S
C246        H248   1.082       .  S
N249        N250   1.321       .  A
N249        C253   1.350       .  A
N249       Cu257   2.088       .  S
N250        C251   1.340       .  A
N250       Cu256   2.054       .  S
C251        C252   1.378       .  A
C251        H254   1.082       .  S
C252        C253   1.388       .  A
C252       C2034   1.477       .  S
C253        H255   1.082       .  S
Cu256       N259   2.054       .  S
Cu257       N267   2.090       .  S
Cu258       N260   2.079       .  S
Cu258       N266   2.080       .  S
N259        N260   1.321       .  A
N259        C263   1.340       .  A
N260        C261   1.348       .  A
C261        C262   1.386       .  A
C261        H264   1.082       .  S
C262        C263   1.378       .  A
C262       C2045   1.474       .  S
C263        H265   1.082       .  S
N266        N267   1.324       .  A
N266        C270   1.345       .  A
N267        C268   1.347       .  A
C268        C269   1.386       .  A
C268        H271   1.082       .  S
C269        C270   1.384       .  A
C269       C2005   1.486       .  S
C270        H272   1.082       .  S
N273        N274   1.320       .  A
N273        C277   1.348       .  A
N273       Cu281   2.086       .  S
N274        C275   1.343       .  A
N274       Cu280   2.056       .  S
C275        C276   1.381       .  A
C275        H278   1.082       .  S
C276        C277   1.388       .  A
C276       C1994   1.481       .  S
C277        H279   1.082       .  S
Cu280       N283   2.056       .  S
Cu281       N291   2.087       .  S
Cu282       N284   2.093       .  S
Cu282       N290   2.095       .  S
N283        N284   1.322       .  A
N283        C287   1.340       .  A
N284        C285   1.351       .  A
C285        C286   1.390       .  A
C285        H288   1.082       .  S
C286        C287   1.378       .  A
C286       C1965   1.480       .  S
C287        H289   1.082       .  S
N290        N291   1.326       .  A
N290        C294   1.349       .  A
N291        C292   1.346       .  A
C292        C293   1.382       .  A
C292        H295   1.082       .  S
C293        C294   1.385       .  A
C293       C1954   1.483       .  S
C294        H296   1.082       .  S
N297        C302   1.350       .  A
N297        C301   1.353       .  A
N297        H329   1.037       .  S
N298        C305   1.350       .  A
N298        C306   1.349       .  A
N299        C304   1.354       .  A
N299        C303   1.353       .  A
N299        H330   1.036       .  S
N300        C307   1.351       .  A
N300        C308   1.351       .  A
C301        C309   1.388       .  A
C301        C317   1.415       .  A
C302        C318   1.412   1_655  A
C302        C310   1.386       .  A
C303        C311   1.386       .  A
C303        C320   1.416       .  A
C304        C319   1.417       .  A
C304        C312   1.388       .  A
C305        C317   1.411       .  A
C305        C313   1.386       .  A
C306        C320   1.412   1_655  A
C306        C314   1.387       .  A
C307        C315   1.386       .  A
C307        C318   1.413       .  A
C308        C316   1.386       .  A
C308        C319   1.414       .  A
C309        C310   1.377       .  A
C309        H321   1.082       .  S
C310        H322   1.082       .  S
C311        C312   1.376       .  A
C311        H323   1.082       .  S
C312        H324   1.082       .  S
C313        C314   1.372       .  A
C313        H325   1.082       .  S
C314        H326   1.082       .  S
C315        C316   1.373       .  A
C315        H327   1.082       .  S
C316        H328   1.082       .  S
C317       C2345   1.486       .  S
C318       C1925   1.486       .  S
C319       C1974   1.489       .  S
C320       C1905   1.485       .  S
N331        C336   1.354       .  A
N331        C335   1.350   1_455  A
N331        H363   1.038       .  S
N332        C339   1.350       .  A
N332        C340   1.351       .  A
N333        C338   1.351       .  A
N333        C337   1.352       .  A
N333        H364   1.038       .  S
N334        C341   1.347       .  A
N334        C342   1.347       .  A
C335        C343   1.387       .  A
C335        C351   1.413       .  A
C336        C352   1.415       .  A
C336        C344   1.387   1_455  A
C337        C345   1.388       .  A
C337        C354   1.416       .  A
C338        C353   1.412       .  A
C338        C346   1.386       .  A
C339        C351   1.413       .  A
C339        C347   1.386       .  A
C340        C354   1.413   1_655  A
C340        C348   1.386       .  A
C341        C349   1.385       .  A
C341        C352   1.407       .  A
C342        C350   1.387       .  A
C342        C353   1.408       .  A
C343        C344   1.375       .  A
C343        H355   1.082       .  S
C344        H356   1.082       .  S
C345        C346   1.375       .  A
C345        H357   1.082       .  S
C346        H358   1.082       .  S
C347        C348   1.376       .  A
C347        H359   1.082       .  S
C348        H360   1.082       .  S
C349        C350   1.374       .  A
C349        H361   1.082       .  S
C350        H362   1.082       .  S
C351       C2025   1.484       .  S
C352       C1885   1.486       .  S
C353       C1845   1.481       .  S
C354       C1874   1.488       .  S
N365        N366   1.321       .  A
N365        C369   1.350       .  A
N365       Cu373   2.087       .  S
N366        C367   1.340       .  A
N366       Cu372   2.056       .  S
C367        C368   1.378       .  A
C367        H370   1.082       .  S
C368        C369   1.389       .  A
C368       C1934   1.478       .  S
C369        H371   1.082       .  S
Cu372       N375   2.056       .  S
Cu373       N383   2.089       .  S
Cu374       N376   2.082       .  S
Cu374       N382   2.084       .  S
N375        N376   1.321       .  A
N375        C379   1.341       .  A
N376        C377   1.349       .  A
C377        C378   1.386       .  A
C377        H380   1.082       .  S
C378        C379   1.378       .  A
C378       C1894   1.474       .  S
C379        H381   1.082       .  S
N382        N383   1.325       .  A
N382        C386   1.346       .  A
N383        C384   1.347       .  A
C384        C385   1.384       .  A
C384        H387   1.082       .  S
C385        C386   1.383       .  A
C385       C2394   1.483       .  S
C386        H388   1.082       .  S
N389        N390   1.321       .  A
N389        C393   1.348       .  A
N389       Cu397   2.072       .  S
N390        C391   1.341       .  A
N390       Cu396   2.062       .  S
C391        C392   1.379       .  A
C391        H394   1.082       .  S
C392        C393   1.384       .  A
C392       C1825   1.472       .  S
C393        H395   1.082       .  S
Cu396       N399   2.062       .  S
Cu397       N407   2.073       .  S
Cu398       N400   2.068       .  S
Cu398       N406   2.070       .  S
N399        N400   1.321       .  A
N399        C403   1.340       .  A
N400        C401   1.347       .  A
C401        C402   1.385       .  A
C401        H404   1.082       .  S
C402        C403   1.379       .  A
C402       C1854   1.474       .  S
C403        H405   1.082       .  S
N406        N407   1.324       .  A
N406        C410   1.344       .  A
N407        C408   1.343       .  A
C408        C409   1.381       .  A
C408        H411   1.082       .  S
C409        C410   1.381       .  A
C409       C1805   1.473       .  S
C410        H412   1.082       .  S
N413        N414   1.320       .  A
N413        C417   1.347       .  A
N413       Cu421   2.070       .  S
N414        C415   1.340       .  A
N414       Cu420   2.054       .  S
C415        C416   1.380       .  A
C415        H418   1.082       .  S
C416        C417   1.386       .  A
C416       C1774   1.476       .  S
C417        H419   1.082       .  S
Cu420       N423   2.054       .  S
Cu421       N431   2.072       .  S
Cu422       N424   2.096       .  S
Cu422       N430   2.097       .  S
N423        N424   1.322       .  A
N423        C427   1.341       .  A
N424        C425   1.350       .  A
C425        C426   1.388       .  A
C425        H428   1.082       .  S
C426        C427   1.376       .  A
C426       C1785   1.476       .  S
C427        H429   1.082       .  S
N430        N431   1.324       .  A
N430        C434   1.349       .  A
N431        C432   1.343       .  A
C432        C433   1.382       .  A
C432        H435   1.082       .  S
C433        C434   1.389       .  A
C433       C1754   1.487       .  S
C434        H436   1.082       .  S
N437        C442   1.351       .  A
N437        C441   1.351   1_545  A
N437        H469   1.038       .  S
N438        C445   1.348       .  A
N438        C446   1.347       .  A
N439        C444   1.351       .  A
N439        C443   1.353       .  A
N439        H470   1.037       .  S
N440        C447   1.350       .  A
N440        C448   1.349       .  A
C441        C449   1.384       .  A
C441        C457   1.409       .  A
C442        C458   1.417       .  A
C442        C450   1.389   1_545  A
C443        C451   1.387       .  A
C443        C460   1.415       .  A
C444        C459   1.414       .  A
C444        C452   1.387       .  A
C445        C457   1.409       .  A
C445        C453   1.387       .  A
C446        C460   1.407   1_565  A
C446        C454   1.386       .  A
C447        C455   1.386       .  A
C447        C458   1.412       .  A
C448        C456   1.387       .  A
C448        C459   1.413       .  A
C449        C450   1.376       .  A
C449        H461   1.082       .  S
C450        H462   1.082       .  S
C451        C452   1.375       .  A
C451        H463   1.082       .  S
C452        H464   1.082       .  S
C453        C454   1.372       .  A
C453        H465   1.082       .  S
C454        H466   1.082       .  S
C455        C456   1.373       .  A
C455        H467   1.082       .  S
C456        H468   1.082       .  S
C457       C2365   1.481       .  S
C458       C1734   1.487       .  S
C459       C1765   1.483       .  S
C460       C1714   1.482       .  S
N471        C476   1.355   1_565  A
N471        C475   1.352       .  A
N471        H503   1.034   1_565  S
N472        C479   1.351       .  A
N472        C480   1.352       .  A
N473        C478   1.350       .  A
N473        C477   1.352       .  A
N473        H504   1.035       .  S
N474        C481   1.350       .  A
N474        C482   1.350       .  A
C475        C483   1.387       .  A
C475        C491   1.419       .  A
C476        C492   1.420       .  A
C476        C484   1.387   1_545  A
C477        C485   1.388       .  A
C477        C494   1.415       .  A
C478        C493   1.412       .  A
C478        C486   1.387       .  A
C479        C491   1.418       .  A
C479        C487   1.388       .  A
C480        C494   1.416   1_565  A
C480        C488   1.385       .  A
C481        C489   1.387       .  A
C481        C492   1.413       .  A
C482        C490   1.386       .  A
C482        C493   1.412       .  A
C483        C484   1.377       .  A
C483        H495   1.082       .  S
C484        H496   1.082       .  S
C485        C486   1.373       .  A
C485        H497   1.082       .  S
C486        H498   1.082       .  S
C487        C488   1.375       .  A
C487        H499   1.082       .  S
C488        H500   1.082       .  S
C489        C490   1.372       .  A
C489        H501   1.082       .  S
C490        H502   1.082       .  S
C491       C2285   1.490       .  S
C492       C1665   1.491       .  S
C493       C1645   1.480       .  S
C494       C1694   1.489       .  S
N505        N506   1.322       .  A
N505        C509   1.347       .  A
N505       Cu513   2.080       .  S
N506        C507   1.343       .  A
N506       Cu512   2.065       .  S
C507        C508   1.380       .  A
C507        H510   1.082       .  S
C508        C509   1.385       .  A
C508       C1674   1.477       .  S
C509        H511   1.082       .  S
Cu512       N515   2.064       .  S
Cu513       N523   2.080       .  S
Cu514       N516   2.068       .  S
Cu514       N522   2.069       .  S
N515        N516   1.322       .  A
N515        C519   1.342       .  A
N516        C517   1.346       .  A
C517        C518   1.382       .  A
C517        H520   1.082       .  S
C518        C519   1.379       .  A
C518       C1725   1.470       .  S
C519        H521   1.082       .  S
N522        N523   1.324       .  A
N522        C526   1.344       .  A
N523        C524   1.346       .  A
C524        C525   1.382       .  A
C524        H527   1.082       .  S
C525        C526   1.379       .  A
C525       C2554   1.472       .  S
C526        H528   1.082       .  S
N529        N530   1.319       .  A
N529        C533   1.346       .  A
N529       Cu537   2.056       .  S
N530        C531   1.338       .  A
N530       Cu536   2.054       .  S
C531        C532   1.379       .  A
C531        H534   1.082       .  S
C532        C533   1.383       .  A
C532       C1654   1.469       .  S
C533        H535   1.082       .  S
Cu536       N539   2.055       .  S
Cu537       N547   2.058       .  S
Cu538       N540   2.083       .  S
Cu538       N546   2.084       .  S
N539        N540   1.321       .  A
N539        C543   1.340       .  A
N540        C541   1.349       .  A
C541        C542   1.387       .  A
C541        H544   1.082       .  S
C542        C543   1.378       .  A
C542       C1634   1.477       .  S
C543        H545   1.082       .  S
N546        N547   1.324       .  A
N546        C550   1.346       .  A
N547        C548   1.340       .  A
C548        C549   1.377       .  A
C548        H551   1.082       .  S
C549        C550   1.384       .  A
C549       C1614   1.474       .  S
C550        H552   1.082       .  S
N553        C558   1.354       .  A
N553        C557   1.353       .  A
N553        H585   1.032   1_556  S
N554        C561   1.353       .  A
N554        C562   1.353   1_556  A
N555        C560   1.354       .  A
N555        C559   1.354       .  A
N555        H586   1.031       .  S
N556        C563   1.350       .  A
N556        C564   1.351       .  A
C557        C565   1.386       .  A
C557        C573   1.417       .  A
C558        C574   1.418   1_556  A
C558        C566   1.387       .  A
C559        C567   1.388       .  A
C559        C576   1.420       .  A
C560        C575   1.417       .  A
C560        C568   1.385       .  A
C561        C573   1.417       .  A
C561        C569   1.387       .  A
C562        C576   1.417       .  A
C562        C570   1.386   1_554  A
C563        C571   1.386       .  A
C563        C574   1.412       .  A
C564        C572   1.387       .  A
C564        C575   1.413       .  A
C565        C566   1.376       .  A
C565        H577   1.082       .  S
C566        H578   1.082       .  S
C567        C568   1.376       .  A
C567        H579   1.082       .  S
C568        H580   1.082       .  S
C569        C570   1.373       .  A
C569        H581   1.082       .  S
C570        H582   1.082       .  S
C571        C572   1.371       .  A
C571        H583   1.082       .  S
C572        H584   1.082       .  S
C573       C1834   1.490       .  S
C574       C1585   1.486       .  S
C575       C1545   1.488       .  S
C576       C1565   1.492       .  S
N587        N588   1.321       .  A
N587        C591   1.351       .  A
N587       Cu595   2.083       .  S
N588        C589   1.339       .  A
N588       Cu594   2.056       .  S
C589        C590   1.376       .  A
C589        H592   1.082       .  S
C590        C591   1.387       .  A
C590       C2125   1.473       .  S
C591        H593   1.082       .  S
Cu594       N597   2.056       .  S
Cu595       N605   2.085       .  S
Cu596       N598   2.079       .  S
Cu596       N604   2.080       .  S
N597        N598   1.321       .  A
N597        C601   1.341       .  A
N598        C599   1.348       .  A
C599        C600   1.385       .  A
C599        H602   1.082       .  S
C600        C601   1.378       .  A
C600       C1594   1.473       .  S
C601        H603   1.082       .  S
N604        N605   1.325       .  A
N604        C608   1.346       .  A
N605        C606   1.345       .  A
C606        C607   1.384       .  A
C606        H609   1.082       .  S
C607        C608   1.384       .  A
C607       C2414   1.483       .  S
C608        H610   1.082       .  S
N611        C616   1.353       .  A
N611        C615   1.350       .  A
N611        H643   1.038   1_655  S
N612        C619   1.347   1_455  A
N612        C620   1.347       .  A
N613        C618   1.348       .  A
N613        C617   1.352       .  A
N613        H644   1.038       .  S
N614        C621   1.350       .  A
N614        C622   1.350       .  A
C615        C623   1.387       .  A
C615        C631   1.414       .  A
C616        C632   1.415   1_655  A
C616        C624   1.388       .  A
C617        C625   1.389       .  A
C617        C634   1.415       .  A
C618        C633   1.407       .  A
C618        C626   1.384       .  A
C619        C631   1.409       .  A
C619        C627   1.387       .  A
C620        C634   1.409       .  A
C620        C628   1.385   1_455  A
C621        C629   1.386       .  A
C621        C632   1.411       .  A
C622        C630   1.387       .  A
C622        C633   1.412       .  A
C623        C624   1.375       .  A
C623        H635   1.083       .  S
C624        H636   1.082       .  S
C625        C626   1.378       .  A
C625        H637   1.082       .  S
C626        H638   1.082       .  S
C627        C628   1.375       .  A
C627        H639   1.082       .  S
C628        H640   1.082       .  S
C629        C630   1.375       .  A
C629        H641   1.082       .  S
C630        H642   1.082       .  S
C631       C2185   1.480       .  S
C632       C1525   1.487       .  S
C633       C1485   1.481       .  S
C634       C1505   1.487       .  S
N645        N646   1.320   1_655  A
N645        C649   1.350       .  A
N645       Cu653   2.091       .  S
N646        C647   1.340       .  A
N646       Cu652   2.051       .  S
C647        C648   1.379       .  A
C647        H650   1.082       .  S
C648        C649   1.390   1_455  A
C648       C1914   1.482       .  S
C649        H651   1.082       .  S
Cu652       N655   2.051   1_455  S
Cu653       N663   2.093       .  S
Cu654       N656   2.093       .  S
Cu654       N662   2.096       .  S
N655        N656   1.322       .  A
N655        C659   1.340   1_655  A
N656        C657   1.351       .  A
C657        C658   1.388       .  A
C657        H660   1.082       .  S
C658        C659   1.376   1_655  A
C658       C1534   1.474       .  S
C659        H661   1.082       .  S
N662        N663   1.326       .  A
N662        C666   1.349       .  A
N663        C664   1.347       .  A
C664        C665   1.385       .  A
C664        H667   1.082       .  S
C665        C666   1.386       .  A
C665       C2514   1.490       .  S
C666        H668   1.082       .  S
N669        N670   1.321       .  A
N669        C673   1.348       .  A
N669       Cu677   2.087       .  S
N670        C671   1.341       .  A
N670       Cu676   2.057       .  S
C671        C672   1.381       .  A
C671        H674   1.082       .  S
C672        C673   1.389       .  A
C672       C1554   1.484       .  S
C673        H675   1.082       .  S
Cu676       N679   2.056       .  S
Cu677       N687   2.088       .  S
Cu678       N680   2.070       .  S
Cu678       N686   2.071       .  S
N679        N680   1.320       .  A
N679        C683   1.341       .  A
N680        C681   1.346       .  A
C681        C682   1.386       .  A
C681        H684   1.082       .  S
C682        C683   1.380       .  A
C682       C1494   1.476       .  S
C683        H685   1.082       .  S
N686        N687   1.324       .  A
N686        C690   1.343       .  A
N687        C688   1.347       .  A
C688        C689   1.385       .  A
C688        H691   1.082       .  S
C689        C690   1.381       .  A
C689       C1474   1.481       .  S
C690        H692   1.082       .  S
N693        C698   1.353       .  A
N693        C697   1.350       .  A
N693        H725   1.041       .  S
N694        C701   1.348       .  A
N694        C702   1.347       .  A
N695        C700   1.350       .  A
N695        C699   1.352       .  A
N695        H726   1.040       .  S
N696        C703   1.349       .  A
N696        C704   1.348       .  A
C697        C705   1.385       .  A
C697        C713   1.409       .  A
C698        C714   1.417       .  A
C698        C706   1.389       .  A
C699        C707   1.388       .  A
C699        C716   1.413       .  A
C700        C715   1.411   1_556  A
C700        C708   1.386       .  A
C701        C713   1.408   1_556  A
C701        C709   1.387       .  A
C702        C716   1.408       .  A
C702        C710   1.386       .  A
C703        C711   1.386       .  A
C703        C714   1.411       .  A
C704        C712   1.387       .  A
C704        C715   1.411       .  A
C705        C706   1.377       .  A
C705        H717   1.082       .  S
C706        H718   1.082       .  S
C707        C708   1.377       .  A
C707        H719   1.082       .  S
C708        H720   1.082       .  S
C709        C710   1.374       .  A
C709        H721   1.082       .  S
C710        H722   1.082       .  S
C711        C712   1.376       .  A
C711        H723   1.082       .  S
C712        H724   1.082       .  S
C713       C1454   1.481       .  S
C714       C1405   1.494       .  S
C715       C1434   1.483       .  S
C716       C1625   1.483       .  S
N727        N728   1.323       .  A
N727        C731   1.348       .  A
N727       Cu735   2.082       .  S
N728        C729   1.343       .  A
N728       Cu734   2.065       .  S
C729        C730   1.379       .  A
C729        H732   1.082   1_556  S
C730        C731   1.384       .  A
C730       C2085   1.473       .  S
C731        H733   1.082       .  S
Cu734       N737   2.065       .  S
Cu735       N745   2.082       .  S
Cu736       N738   2.076       .  S
Cu736       N744   2.077       .  S
N737        N738   1.321       .  A
N737        C741   1.342       .  A
N738        C739   1.348       .  A
C739        C740   1.385       .  A
C739        H742   1.082       .  S
C740        C741   1.381       .  A
C740       C1445   1.478       .  S
C741        H743   1.082       .  S
N744        N745   1.323       .  A
N744        C748   1.344       .  A
N745        C746   1.347       .  A
C746        C747   1.386       .  A
C746        H749   1.082       .  S
C747        C748   1.384       .  A
C747       C2574   1.485       .  S
C748        H750   1.082       .  S
N751        C756   1.353   1_545  A
N751        C755   1.351       .  A
N751        H783   1.040       .  S
N752        C759   1.350       .  A
N752        C760   1.350       .  A
N753        C758   1.352       .  A
N753        C757   1.354       .  A
N753        H784   1.039       .  S
N754        C761   1.351   1_545  A
N754        C762   1.351       .  A
C755        C763   1.386   1_545  A
C755        C771   1.412       .  A
C756        C772   1.415       .  A
C756        C764   1.388       .  A
C757        C765   1.388       .  A
C757        C774   1.418       .  A
C758        C773   1.416       .  A
C758        C766   1.387       .  A
C759        C771   1.411       .  A
C759        C767   1.386       .  A
C760        C774   1.412       .  A
C760        C768   1.386       .  A
C761        C769   1.386       .  A
C761        C772   1.414       .  A
C762        C770   1.387   1_545  A
C762        C773   1.414       .  A
C763        C764   1.376       .  A
C763        H775   1.082       .  S
C764        H776   1.082       .  S
C765        C766   1.379       .  A
C765        H777   1.082       .  S
C766        H778   1.083       .  S
C767        C768   1.374       .  A
C767        H779   1.082       .  S
C768        H780   1.082       .  S
C769        C770   1.376       .  A
C769        H781   1.082       .  S
C770        H782   1.082       .  S
C771       C1385   1.488       .  S
C772       C2245   1.492       .  S
C773       C1374   1.490       .  S
C774       C1354   1.493       .  S
N785        N786   1.323       .  A
N785        C789   1.351       .  A
N785       Cu793   2.101   1_545  S
N786        C787   1.343       .  A
N786       Cu792   2.060       .  S
C787        C788   1.378       .  A
C787        H790   1.082       .  S
C788        C789   1.389       .  A
C788       C1394   1.480       .  S
C789        H791   1.082   1_545  S
Cu792       N795   2.059       .  S
Cu793       N803   2.103       .  S
Cu794       N796   2.074   1_565  S
Cu794       N802   2.075       .  S
N795        N796   1.321       .  A
N795        C799   1.341       .  A
N796        C797   1.347   1_545  A
C797        C798   1.385   1_565  A
C797        H800   1.082       .  S
C798        C799   1.379       .  A
C798       C1705   1.473       .  S
C799        H801   1.082       .  S
N802        N803   1.324       .  A
N802        C806   1.345       .  A
N803        C804   1.350       .  A
C804        C805   1.390       .  A
C804        H807   1.082       .  S
C805        C806   1.383       .  A
C805       C2485   1.492       .  S
C806        H808   1.082       .  S
N809        N810   1.321       .  A
N809        C813   1.345       .  A
N809       Cu817   2.064       .  S
N810        C811   1.345       .  A
N810       Cu816   2.070       .  S
C811        C812   1.382       .  A
C811        H814   1.082       .  S
C812        C813   1.383       .  A
C812       C1345   1.476       .  S
C813        H815   1.082       .  S
Cu816       N819   2.065       .  S
Cu817       N827   2.064       .  S
Cu818       N820   2.087       .  S
Cu818       N826   2.088       .  S
N819        N820   1.321       .  A
N819        C823   1.340       .  A
N820        C821   1.349       .  A
C821        C822   1.391       .  A
C821        H824   1.082       .  S
C822        C823   1.383       .  A
C822       C1414   1.489       .  S
C823        H825   1.081       .  S
N826        N827   1.323       .  A
N826        C830   1.348       .  A
N827        C828   1.343       .  A
C828        C829   1.379       .  A
C828        H831   1.082       .  S
C829        C830   1.385       .  A
C829       C1334   1.476       .  S
C830        H832   1.082       .  S
N833        C838   1.352       .  A
N833        C837   1.351       .  A
N833        H865   1.035   1_565  S
N834        C841   1.351       .  A
N834        C842   1.353       .  A
N835        C840   1.352       .  A
N835        C839   1.353       .  A
N835        H866   1.033       .  S
N836        C843   1.351       .  A
N836        C844   1.349   1_565  A
C837        C845   1.389       .  A
C837        C853   1.416   1_565  A
C838        C854   1.413       .  A
C838        C846   1.386       .  A
C839        C847   1.387       .  A
C839        C856   1.418       .  A
C840        C855   1.418       .  A
C840        C848   1.388       .  A
C841        C853   1.416       .  A
C841        C849   1.386       .  A
C842        C856   1.417       .  A
C842        C850   1.386       .  A
C843        C851   1.386       .  A
C843        C854   1.412       .  A
C844        C852   1.387   1_545  A
C844        C855   1.413       .  A
C845        C846   1.373       .  A
C845        H857   1.082       .  S
C846        H858   1.082       .  S
C847        C848   1.375       .  A
C847        H859   1.082       .  S
C848        H860   1.082       .  S
C849        C850   1.373       .  A
C849        H861   1.082       .  S
C850        H862   1.082       .  S
C851        C852   1.371       .  A
C851        H863   1.082       .  S
C852        H864   1.082       .  S
C853       C1314   1.484       .  S
C854       C1985   1.487       .  S
C855       C1285   1.483       .  S
C856       C1274   1.492       .  S
N867        N868   1.320       .  A
N867        C871   1.346   1_545  A
N867       Cu875   2.063   1_545  S
N868        C869   1.339       .  A
N868       Cu874   2.057       .  S
C869        C870   1.380       .  A
C869        H872   1.082       .  S
C870        C871   1.385   1_545  A
C870       C1305   1.475       .  S
C871        H873   1.082       .  S
Cu874       N877   2.057       .  S
Cu875       N885   2.065       .  S
Cu876       N878   2.080   1_565  S
Cu876       N884   2.081       .  S
N877        N878   1.321       .  A
N877        C881   1.342       .  A
N878        C879   1.347       .  A
C879        C880   1.386       .  A
C879        H882   1.082   1_545  S
C880        C881   1.379       .  A
C880       C1685   1.475       .  S
C881        H883   1.082       .  S
N884        N885   1.324       .  A
N884        C888   1.345       .  A
N885        C886   1.342       .  A
C886        C887   1.380       .  A
C886        H889   1.082       .  S
C887        C888   1.384       .  A
C887       C2434   1.477       .  S
C888        H890   1.082       .  S
N891        C896   1.353       .  A
N891        C895   1.352       .  A
N891        H923   1.038       .  S
N892        C899   1.351       .  A
N892        C900   1.349       .  A
N893        C898   1.352       .  A
N893        C897   1.352       .  A
N893        H924   1.038       .  S
N894        C901   1.350       .  A
N894        C902   1.351       .  A
C895        C903   1.385       .  A
C895        C911   1.414   1_655  A
C896        C912   1.418       .  A
C896        C904   1.388       .  A
C897        C905   1.388       .  A
C897        C914   1.414       .  A
C898        C913   1.413       .  A
C898        C906   1.386       .  A
C899        C911   1.413       .  A
C899        C907   1.386       .  A
C900        C914   1.412       .  A
C900        C908   1.386       .  A
C901        C909   1.386       .  A
C901        C912   1.413       .  A
C902        C910   1.386       .  A
C902        C913   1.413   1_655  A
C903        C904   1.379       .  A
C903        H915   1.082       .  S
C904        H916   1.082       .  S
C905        C906   1.378       .  A
C905        H917   1.082       .  S
C906        H918   1.082       .  S
C907        C908   1.373       .  A
C907        H919   1.082       .  S
C908        H920   1.082       .  S
C909        C910   1.373       .  A
C909        H921   1.082       .  S
C910        H922   1.082       .  S
C911       C1254   1.491       .  S
C912       C1794   1.489       .  S
C913       C1225   1.489       .  S
C914       C1205   1.484       .  S
N925        N926   1.322       .  A
N925        C929   1.349       .  A
N925       Cu933   2.082   1_455  S
N926        C927   1.341       .  A
N926       Cu932   2.061       .  S
C927        C928   1.379       .  A
C927        H930   1.082       .  S
C928        C929   1.387       .  A
C928       C1865   1.477       .  S
C929        H931   1.082   1_455  S
Cu932       N935   2.061       .  S
Cu933       N943   2.083       .  S
Cu934       N936   2.081       .  S
Cu934       N942   2.081   1_455  S
N935        N936   1.322       .  A
N935        C939   1.344       .  A
N936        C937   1.347       .  A
C937        C938   1.384       .  A
C937        H940   1.082       .  S
C938        C939   1.380       .  A
C938       C1245   1.475       .  S
C939        H941   1.082       .  S
N942        N943   1.325       .  A
N942        C946   1.347       .  A
N943        C944   1.346       .  A
C944        C945   1.381       .  A
C944        H947   1.082       .  S
C945        C946   1.382       .  A
C945       C2585   1.476       .  S
C946        H948   1.082       .  S
N949        N950   1.322       .  A
N949        C953   1.351       .  A
N949       Cu957   2.095       .  S
N950        C951   1.341       .  A
N950       Cu956   2.057       .  S
C951        C952   1.378       .  A
C951        H954   1.082       .  S
C952        C953   1.390       .  A
C952       C1265   1.480       .  S
C953        H955   1.082       .  S
Cu956       N959   2.057       .  S
Cu957       N967   2.096       .  S
Cu958       N960   2.060       .  S
Cu958       N966   2.061       .  S
N959        N960   1.320       .  A
N959        C963   1.340       .  A
N960        C961   1.345       .  A
C961        C962   1.384       .  A
C961        H964   1.082       .  S
C962        C963   1.380       .  A
C962       C1214   1.472       .  S
C963        H965   1.082       .  S
N966        N967   1.324       .  A
N966        C970   1.342       .  A
N967        C968   1.347       .  A
C968        C969   1.387       .  A
C968        H971   1.082       .  S
C969        C970   1.379       .  A
C969       C1185   1.480       .  S
C970        H972   1.082       .  S
N973        N974   1.319       .  A
N973        C977   1.344       .  A
N973       Cu981   2.076       .  S
N974        C975   1.343   1_455  A
N974       Cu980   2.068   1_455  S
C975        C976   1.388   1_655  A
C975        H978   1.080       .  S
C976        C977   1.390       .  A
C976       C1514   1.494       .  S
C977        H979   1.081       .  S
Cu980       N983   2.072       .  S
Cu981       N991   2.077       .  S
Cu982       N984   2.079       .  S
Cu982       N990   2.079       .  S
N983        N984   1.323   1_655  A
N983        C987   1.345       .  A
N984        C985   1.347       .  A
C985        C986   1.385       .  A
C985        H988   1.082       .  S
C986        C987   1.382   1_455  A
C986       C1234   1.480       .  S
C987        H989   1.082       .  S
N990        N991   1.322       .  A
N990        C994   1.347       .  A
N991        C992   1.345       .  A
C992        C993   1.384       .  A
C992        H995   1.082       .  S
C993        C994   1.386       .  A
C993       C2665   1.483       .  S
C994        H996   1.082       .  S
N997        N998   1.321       .  A
N997       C1001   1.348       .  A
N997      Cu1005   2.079       .  S
N998        C999   1.339       .  A
N998      Cu1004   2.044       .  S
C999       C1000   1.375       .  A
C999       H1002   1.082       .  S
C1000      C1001   1.385       .  A
C1000      C1294   1.468       .  S
C1001      H1003   1.082       .  S
Cu1004     N1007   2.045       .  S
Cu1005     N1015   2.081       .  S
Cu1006     N1008   2.088       .  S
Cu1006     N1014   2.090       .  S
N1007      N1008   1.321       .  A
N1007      C1011   1.339       .  A
N1008      C1009   1.350       .  A
C1009      C1010   1.388       .  A
C1009      H1012   1.082       .  S
C1010      C1011   1.376       .  A
C1010      C1365   1.474       .  S
C1011      H1013   1.082       .  S
N1014      N1015   1.326       .  A
N1014      C1018   1.346       .  A
N1015      C1016   1.346       .  A
C1016      C1017   1.382       .  A
C1016      H1019   1.082       .  S
C1017      C1018   1.383       .  A
C1017      C2654   1.480       .  S
C1018      H1020   1.082       .  S
N1021      N1022   1.321       .  A
N1021      C1025   1.352       .  A
N1021     Cu1029   2.104       .  S
N1022      C1023   1.340       .  A
N1022     Cu1028   2.049       .  S
C1023      C1024   1.378       .  A
C1023      H1026   1.082       .  S
C1024      C1025   1.392       .  A
C1024      C1574   1.485       .  S
C1025      H1027   1.082       .  S
Cu1028     N1031   2.049       .  S
Cu1029     N1039   2.106       .  S
Cu1030     N1032   2.075       .  S
Cu1030     N1038   2.078       .  S
N1031      N1032   1.320       .  A
N1031      C1035   1.339       .  A
N1032      C1033   1.348       .  A
C1033      C1034   1.386       .  A
C1033      H1036   1.082       .  S
C1034      C1035   1.377       .  A
C1034      C1425   1.472       .  S
C1035      H1037   1.082       .  S
N1038      N1039   1.326       .  A
N1038      C1042   1.346       .  A
N1039      C1040   1.349       .  A
C1040      C1041   1.387       .  A
C1040      H1043   1.082       .  S
C1041      C1042   1.382       .  A
C1041      C2625   1.486       .  S
C1042      H1044   1.082       .  S
C1045      C1046   1.535       .  S
C1045      C1051   1.540       .  S
C1045      C1049   1.553       .  S
C1045      C1165   1.559       .  S
C1046      H1053   1.086       .  S
C1046      C1047   1.367       .  D
C1047      C1048   1.543       .  S
C1047      C1605   1.500       .  S
C1048      C1052   1.541       .  S
C1048      C1050   1.545       .  S
C1048      H1054   1.109       .  S
C1049      H1055   1.083       .  S
C1049      C1050   1.377       .  D
C1050      C1194   1.506       .  S
C1051      H1056   1.085       .  S
C1051      C1052   1.361       .  D
C1052      C1814   1.492       .  S
C1057      C1058   1.532       .  S
C1057      C1063   1.547       .  S
C1057      C1061   1.546       .  S
C1057      C1145   1.555       .  S
C1058      H1065   1.086       .  S
C1058      C1059   1.368       .  D
C1059      C1060   1.548       .  S
C1059      C2154   1.505       .  S
C1060      C1064   1.540       .  S
C1060      C1062   1.546       .  S
C1060      H1066   1.108       .  S
C1061      H1067   1.085       .  S
C1061      C1062   1.371       .  D
C1062      C1325   1.494       .  S
C1063      H1068   1.082       .  S
C1063      C1064   1.364       .  D
C1064      C1745   1.502       .  S
C1069      C1070   1.547       .  S
C1069      C1075   1.533       .  S
C1069      C1073   1.546       .  S
C1069      C1134   1.551       .  S
C1070      H1077   1.082       .  S
C1070      C1071   1.364       .  D
C1071      C1072   1.543       .  S
C1071      C2274   1.504       .  S
C1072      C1076   1.548       .  S
C1072      C1074   1.547       .  S
C1072      H1078   1.108       .  S
C1073      H1079   1.085       .  S
C1073      C1074   1.369       .  D
C1074      C2325   1.497       .  S
C1075      H1080   1.086       .  S
C1075      C1076   1.369       .  D
C1076      C2014   1.505       .  S
C1081      C1082   1.540       .  S
C1081      C1087   1.544       .  S
C1081      C1085   1.550       .  S
C1081      C1105   1.562       .  S
C1082      H1089   1.086       .  S
C1082      C1083   1.366       .  D
C1083      C1084   1.546       .  S
C1083      C1945   1.497       .  S
C1084      C1088   1.547       .  S
C1084      C1086   1.544       .  S
C1084      H1090   1.110       .  S
C1085      H1091   1.080       .  S
C1085      C1086   1.368       .  D
C1086      C1465   1.503       .  S
C1087      H1092   1.086       .  S
C1087      C1088   1.372       .  D
C1088      C2205   1.510       .  S
C1093      C1094   1.540       .  S
C1093      C1099   1.528       .  S
C1093      C1097   1.544       .  S
C1093      C1125   1.549       .  S
C1094      H1101   1.083       .  S
C1094      C1095   1.360       .  D
C1095      C1096   1.547       .  S
C1095      C1114   1.499       .  S
C1096      C1100   1.552       .  S
C1096      C1098   1.551       .  S
C1096      H1102   1.108       .  S
C1097      H1103   1.085       .  S
C1097      C1098   1.373       .  D
C1098      C1174   1.500       .  S
C1099      H1104   1.086       .  S
C1099      C1100   1.367       .  D
C1100      C1154   1.503       .  S
C1105      C1106   1.426       .  A
C1105      C1110   1.432       .  A
C1106      C1107   1.406       .  A
C1106     Br1118   1.925       .  S
C1107      C1108   1.403       .  A
C1107     Br1122   1.933       .  S
C1108      C1109   1.407       .  A
C1108      C1111   1.495       .  S
C1109      C1110   1.414       .  A
C1109     Br1117   1.936       .  S
C1110     Br1121   1.928       .  S
C1111      C1112   1.409       .  A
C1111      C1116   1.411       .  A
C1112      C1113   1.411       .  A
C1112     Br1123   1.931       .  S
C1113      C1114   1.421       .  A
C1113     Br1119   1.936       .  S
C1114      C1115   1.413       .  A
C1115      C1116   1.408       .  A
C1115     Br1124   1.922       .  S
C1116     Br1120   1.935       .  S
C1125      C1126   1.425       .  A
C1125      C1130   1.424       .  A
C1126      C1127   1.404       .  A
C1126     Br1138   1.936       .  S
C1127      C1128   1.402       .  A
C1127     Br1142   1.931       .  S
C1128      C1129   1.406       .  A
C1128      C1131   1.484       .  S
C1129      C1130   1.411       .  A
C1129     Br1137   1.934       .  S
C1130     Br1141   1.923       .  S
C1131      C1132   1.404       .  A
C1131      C1136   1.404       .  A
C1132      C1133   1.407       .  A
C1132     Br1143   1.936       .  S
C1133      C1134   1.423       .  A
C1133     Br1139   1.919       .  S
C1134      C1135   1.425       .  A
C1135      C1136   1.409       .  A
C1135     Br1144   1.934       .  S
C1136     Br1140   1.930       .  S
C1145      C1146   1.428       .  A
C1145      C1150   1.427       .  A
C1146      C1147   1.408       .  A
C1146     Br1158   1.936       .  S
C1147      C1148   1.403       .  A
C1147     Br1162   1.933       .  S
C1148      C1149   1.402       .  A
C1148      C1151   1.487       .  S
C1149      C1150   1.411       .  A
C1149     Br1157   1.934       .  S
C1150     Br1161   1.921       .  S
C1151      C1152   1.405       .  A
C1151      C1156   1.406       .  A
C1152      C1153   1.410       .  A
C1152     Br1163   1.932       .  S
C1153      C1154   1.419       .  A
C1153     Br1159   1.923       .  S
C1154      C1155   1.422       .  A
C1155      C1156   1.408       .  A
C1155     Br1164   1.935       .  S
C1156     Br1160   1.932       .  S
C1165      C1166   1.435       .  A
C1165      C1170   1.429       .  A
C1166      C1167   1.409       .  A
C1166     Br1178   1.937       .  S
C1167      C1168   1.401       .  A
C1167     Br1182   1.937       .  S
C1168      C1169   1.401       .  A
C1168      C1171   1.487       .  S
C1169      C1170   1.412       .  A
C1169     Br1177   1.934       .  S
C1170     Br1181   1.921       .  S
C1171      C1172   1.405       .  A
C1171      C1176   1.406       .  A
C1172      C1173   1.410       .  A
C1172     Br1183   1.931       .  S
C1173      C1174   1.416       .  A
C1173     Br1179   1.917       .  S
C1174      C1175   1.417       .  A
C1175      C1176   1.407       .  A
C1175     Br1184   1.925       .  S
C1176     Br1180   1.931       .  S
C1185      C1186   1.412       .  A
C1185      C1190   1.415       .  A
C1186      C1187   1.407       .  A
C1186     Br1198   1.931       .  S
C1187      C1188   1.409       .  A
C1187     Br1202   1.930       .  S
C1188      C1189   1.407       .  A
C1188      C1191   1.483       .  S
C1189      C1190   1.406       .  A
C1189     Br1197   1.931       .  S
C1190     Br1201   1.931       .  S
C1191      C1192   1.403       .  A
C1191      C1196   1.404       .  A
C1192      C1193   1.409       .  A
C1192     Br1203   1.934       .  S
C1193      C1194   1.421       .  A
C1193     Br1199   1.918       .  S
C1194      C1195   1.420       .  A
C1195      C1196   1.407       .  A
C1195     Br1204   1.924       .  S
C1196     Br1200   1.933       .  S
C1205      C1206   1.407       .  A
C1205      C1210   1.410       .  A
C1206      C1207   1.404       .  A
C1206     Br1218   1.929       .  S
C1207      C1208   1.411       .  A
C1207     Br1222   1.931       .  S
C1208      C1209   1.408       .  A
C1208      C1211   1.480       .  S
C1209      C1210   1.406       .  A
C1209     Br1217   1.929       .  S
C1210     Br1221   1.929       .  S
C1211      C1212   1.409       .  A
C1211      C1216   1.408       .  A
C1212      C1213   1.405       .  A
C1212     Br1223   1.931       .  S
C1213      C1214   1.411       .  A
C1213     Br1219   1.931       .  S
C1214      C1215   1.409       .  A
C1215      C1216   1.405       .  A
C1215     Br1224   1.930       .  S
C1216     Br1220   1.930       .  S
C1225      C1226   1.409       .  A
C1225      C1230   1.409       .  A
C1226      C1227   1.407       .  A
C1226     Br1238   1.929       .  S
C1227      C1228   1.410       .  A
C1227     Br1242   1.929       .  S
C1228      C1229   1.410   1_455  A
C1228      C1231   1.486       .  S
C1229      C1230   1.408   1_655  A
C1229     Br1237   1.928       .  S
C1230     Br1241   1.929   1_455  S
C1231      C1232   1.409       .  A
C1231      C1236   1.410   1_455  A
C1232      C1233   1.408       .  A
C1232     Br1243   1.931       .  S
C1233      C1234   1.413       .  A
C1233     Br1239   1.931       .  S
C1234      C1235   1.410   1_455  A
C1235      C1236   1.409       .  A
C1235     Br1244   1.929       .  S
C1236     Br1240   1.929       .  S
C1245      C1246   1.410       .  A
C1245      C1250   1.407       .  A
C1246      C1247   1.407       .  A
C1246     Br1258   1.930   1_455  S
C1247      C1248   1.409       .  A
C1247     Br1262   1.929   1_455  S
C1248      C1249   1.410       .  A
C1248      C1251   1.486       .  S
C1249      C1250   1.408       .  A
C1249     Br1257   1.928       .  S
C1250     Br1261   1.929       .  S
C1251      C1252   1.409       .  A
C1251      C1256   1.410       .  A
C1252      C1253   1.407       .  A
C1252     Br1263   1.928       .  S
C1253      C1254   1.410       .  A
C1253     Br1259   1.930   1_455  S
C1254      C1255   1.411       .  A
C1255      C1256   1.408       .  A
C1255     Br1264   1.929       .  S
C1256     Br1260   1.929       .  S
C1265      C1266   1.411       .  A
C1265      C1270   1.411       .  A
C1266      C1267   1.409       .  A
C1266     Br1278   1.929       .  S
C1267      C1268   1.409       .  A
C1267     Br1282   1.930       .  S
C1268      C1269   1.409       .  A
C1268      C1271   1.487       .  S
C1269      C1270   1.408       .  A
C1269     Br1277   1.929       .  S
C1270     Br1281   1.930       .  S
C1271      C1272   1.408       .  A
C1271      C1276   1.411       .  A
C1272      C1273   1.407       .  A
C1272     Br1283   1.929       .  S
C1273      C1274   1.411       .  A
C1273     Br1279   1.929       .  S
C1274      C1275   1.410       .  A
C1275      C1276   1.409       .  A
C1275     Br1284   1.929       .  S
C1276     Br1280   1.929       .  S
C1285      C1286   1.409       .  A
C1285      C1290   1.408       .  A
C1286      C1287   1.404       .  A
C1286     Br1298   1.929       .  S
C1287      C1288   1.408       .  A
C1287     Br1302   1.929       .  S
C1288      C1289   1.409       .  A
C1288      C1291   1.477       .  S
C1289      C1290   1.404       .  A
C1289     Br1297   1.930       .  S
C1290     Br1301   1.928       .  S
C1291      C1292   1.408       .  A
C1291      C1296   1.408       .  A
C1292      C1293   1.405       .  A
C1292     Br1303   1.930   1_545  S
C1293      C1294   1.408       .  A
C1293     Br1299   1.929   1_545  S
C1294      C1295   1.408       .  A
C1295      C1296   1.404       .  A
C1295     Br1304   1.930       .  S
C1296     Br1300   1.930       .  S
C1305      C1306   1.411       .  A
C1305      C1310   1.414   1_545  A
C1306      C1307   1.402       .  A
C1306     Br1318   1.932       .  S
C1307      C1308   1.406       .  A
C1307     Br1322   1.931       .  S
C1308      C1309   1.407   1_545  A
C1308      C1311   1.477       .  S
C1309      C1310   1.407       .  A
C1309     Br1317   1.930       .  S
C1310     Br1321   1.931       .  S
C1311      C1312   1.407       .  A
C1311      C1316   1.409       .  A
C1312      C1313   1.405       .  A
C1312     Br1323   1.928       .  S
C1313      C1314   1.409       .  A
C1313     Br1319   1.928       .  S
C1314      C1315   1.408       .  A
C1315      C1316   1.404       .  A
C1315     Br1324   1.929       .  S
C1316     Br1320   1.931       .  S
C1325      C1326   1.413       .  A
C1325      C1330   1.416       .  A
C1326      C1327   1.409       .  A
C1326     Br1338   1.918       .  S
C1327      C1328   1.406       .  A
C1327     Br1342   1.931       .  S
C1328      C1329   1.405       .  A
C1328      C1331   1.484       .  S
C1329      C1330   1.407       .  A
C1329     Br1337   1.932       .  S
C1330     Br1341   1.925       .  S
C1331      C1332   1.410       .  A
C1331      C1336   1.408       .  A
C1332      C1333   1.407       .  A
C1332     Br1343   1.930       .  S
C1333      C1334   1.408       .  A
C1333     Br1339   1.929       .  S
C1334      C1335   1.411       .  A
C1335      C1336   1.407       .  A
C1335     Br1344   1.930       .  S
C1336     Br1340   1.929       .  S
C1345      C1346   1.408       .  A
C1345      C1350   1.412       .  A
C1346      C1347   1.406       .  A
C1346     Br1358   1.929       .  S
C1347      C1348   1.409       .  A
C1347     Br1362   1.930       .  S
C1348      C1349   1.410       .  A
C1348      C1351   1.485       .  S
C1349      C1350   1.409       .  A
C1349     Br1357   1.929       .  S
C1350     Br1361   1.931       .  S
C1351      C1352   1.408       .  A
C1351      C1356   1.409       .  A
C1352      C1353   1.407       .  A
C1352     Br1363   1.930       .  S
C1353      C1354   1.412       .  A
C1353     Br1359   1.930       .  S
C1354      C1355   1.410       .  A
C1355      C1356   1.408       .  A
C1355     Br1364   1.929       .  S
C1356     Br1360   1.929       .  S
C1365      C1366   1.409       .  A
C1365      C1370   1.409       .  A
C1366      C1367   1.406       .  A
C1366     Br1378   1.931       .  S
C1367      C1368   1.409       .  A
C1367     Br1382   1.930       .  S
C1368      C1369   1.410       .  A
C1368      C1371   1.485       .  S
C1369      C1370   1.409       .  A
C1369     Br1377   1.928   1_545  S
C1370     Br1381   1.929   1_545  S
C1371      C1372   1.409       .  A
C1371      C1376   1.410       .  A
C1372      C1373   1.407       .  A
C1372     Br1383   1.928       .  S
C1373      C1374   1.410       .  A
C1373     Br1379   1.929       .  S
C1374      C1375   1.410       .  A
C1375      C1376   1.407       .  A
C1375     Br1384   1.929       .  S
C1376     Br1380   1.930       .  S
C1385      C1386   1.409       .  A
C1385      C1390   1.409       .  A
C1386      C1387   1.408       .  A
C1386     Br1398   1.930       .  S
C1387      C1388   1.412       .  A
C1387     Br1402   1.929       .  S
C1388      C1389   1.411       .  A
C1388      C1391   1.489       .  S
C1389      C1390   1.407       .  A
C1389     Br1397   1.929   1_545  S
C1390     Br1401   1.930       .  S
C1391      C1392   1.411       .  A
C1391      C1396   1.411   1_545  A
C1392      C1393   1.409       .  A
C1392     Br1403   1.930       .  S
C1393      C1394   1.410       .  A
C1393     Br1399   1.929       .  S
C1394      C1395   1.410   1_545  A
C1395      C1396   1.409       .  A
C1395     Br1404   1.929       .  S
C1396     Br1400   1.930       .  S
C1405      C1406   1.415       .  A
C1405      C1410   1.412       .  A
C1406      C1407   1.407       .  A
C1406     Br1418   1.932       .  S
C1407      C1408   1.410       .  A
C1407     Br1422   1.931       .  S
C1408      C1409   1.412       .  A
C1408      C1411   1.489       .  S
C1409      C1410   1.406       .  A
C1409     Br1417   1.931       .  S
C1410     Br1421   1.932       .  S
C1411      C1412   1.412       .  A
C1411      C1416   1.408       .  A
C1412      C1413   1.411       .  A
C1412     Br1423   1.931       .  S
C1413      C1414   1.414       .  A
C1413     Br1419   1.930       .  S
C1414      C1415   1.418       .  A
C1415      C1416   1.404       .  A
C1415     Br1424   1.934       .  S
C1416     Br1420   1.935       .  S
C1425      C1426   1.411       .  A
C1425      C1430   1.410   1_554  A
C1426      C1427   1.406       .  A
C1426     Br1438   1.929       .  S
C1427      C1428   1.407       .  A
C1427     Br1442   1.930       .  S
C1428      C1429   1.408   1_554  A
C1428      C1431   1.477       .  S
C1429      C1430   1.404       .  A
C1429     Br1437   1.930       .  S
C1430     Br1441   1.931       .  S
C1431      C1432   1.409       .  A
C1431      C1436   1.407       .  A
C1432      C1433   1.403       .  A
C1432     Br1443   1.931       .  S
C1433      C1434   1.409       .  A
C1433     Br1439   1.930       .  S
C1434      C1435   1.409       .  A
C1435      C1436   1.406       .  A
C1435     Br1444   1.929   1_554  S
C1436     Br1440   1.928   1_554  S
C1445      C1446   1.412       .  A
C1445      C1450   1.412   1_556  A
C1446      C1447   1.407       .  A
C1446     Br1458   1.929       .  S
C1447      C1448   1.408       .  A
C1447     Br1462   1.930       .  S
C1448      C1449   1.407   1_556  A
C1448      C1451   1.479       .  S
C1449      C1450   1.405       .  A
C1449     Br1457   1.930       .  S
C1450     Br1461   1.930       .  S
C1451      C1452   1.410       .  A
C1451      C1456   1.408   1_556  A
C1452      C1453   1.404       .  A
C1452     Br1463   1.930       .  S
C1453      C1454   1.408   1_556  A
C1453     Br1459   1.930       .  S
C1454      C1455   1.409       .  A
C1455      C1456   1.406       .  A
C1455     Br1464   1.929       .  S
C1456     Br1460   1.928       .  S
C1465      C1466   1.418       .  A
C1465      C1470   1.420       .  A
C1466      C1467   1.411       .  A
C1466     Br1478   1.919       .  S
C1467      C1468   1.405       .  A
C1467     Br1482   1.932       .  S
C1468      C1469   1.404       .  A
C1468      C1471   1.485       .  S
C1469      C1470   1.407       .  A
C1469     Br1477   1.933       .  S
C1470     Br1481   1.929       .  S
C1471      C1472   1.408       .  A
C1471      C1476   1.409       .  A
C1472      C1473   1.408       .  A
C1472     Br1483   1.930       .  S
C1473      C1474   1.413       .  A
C1473     Br1479   1.931       .  S
C1474      C1475   1.411       .  A
C1475      C1476   1.408       .  A
C1475     Br1484   1.929       .  S
C1476     Br1480   1.930       .  S
C1485      C1486   1.406       .  A
C1485      C1490   1.409       .  A
C1486      C1487   1.405       .  A
C1486     Br1498   1.929       .  S
C1487      C1488   1.412       .  A
C1487     Br1502   1.930       .  S
C1488      C1489   1.408       .  A
C1488      C1491   1.480       .  S
C1489      C1490   1.404       .  A
C1489     Br1497   1.930       .  S
C1490     Br1501   1.930       .  S
C1491      C1492   1.408       .  A
C1491      C1496   1.408       .  A
C1492      C1493   1.406       .  A
C1492     Br1503   1.931       .  S
C1493      C1494   1.411       .  A
C1493     Br1499   1.931       .  S
C1494      C1495   1.413       .  A
C1495      C1496   1.405       .  A
C1495     Br1504   1.931       .  S
C1496     Br1500   1.931       .  S
C1505      C1506   1.408       .  A
C1505      C1510   1.411       .  A
C1506      C1507   1.406       .  A
C1506     Br1518   1.930       .  S
C1507      C1508   1.412       .  A
C1507     Br1522   1.930       .  S
C1508      C1509   1.411       .  A
C1508      C1511   1.487       .  S
C1509      C1510   1.406       .  A
C1509     Br1517   1.931   1_455  S
C1510     Br1521   1.931   1_455  S
C1511      C1512   1.408       .  A
C1511      C1516   1.407       .  A
C1512      C1513   1.409       .  A
C1512     Br1523   1.932       .  S
C1513      C1514   1.419       .  A
C1513     Br1519   1.932       .  S
C1514      C1515   1.421       .  A
C1515      C1516   1.407       .  A
C1515     Br1524   1.933   1_455  S
C1516     Br1520   1.935   1_455  S
C1525      C1526   1.408       .  A
C1525      C1530   1.410       .  A
C1526      C1527   1.405       .  A
C1526     Br1538   1.929       .  S
C1527      C1528   1.410       .  A
C1527     Br1542   1.930       .  S
C1528      C1529   1.408       .  A
C1528      C1531   1.482       .  S
C1529      C1530   1.407       .  A
C1529     Br1537   1.928       .  S
C1530     Br1541   1.929       .  S
C1531      C1532   1.410   1_455  A
C1531      C1536   1.408       .  A
C1532      C1533   1.408       .  A
C1532     Br1543   1.930       .  S
C1533      C1534   1.409       .  A
C1533     Br1539   1.929       .  S
C1534      C1535   1.410   1_655  A
C1535      C1536   1.406       .  A
C1535     Br1544   1.929       .  S
C1536     Br1540   1.930       .  S
C1545      C1546   1.410       .  A
C1545      C1550   1.409       .  A
C1546      C1547   1.407       .  A
C1546     Br1558   1.929       .  S
C1547      C1548   1.408       .  A
C1547     Br1562   1.929       .  S
C1548      C1549   1.410       .  A
C1548      C1551   1.483       .  S
C1549      C1550   1.407       .  A
C1549     Br1557   1.929       .  S
C1550     Br1561   1.928       .  S
C1551      C1552   1.407       .  A
C1551      C1556   1.408       .  A
C1552      C1553   1.407       .  A
C1552     Br1563   1.931       .  S
C1553      C1554   1.414       .  A
C1553     Br1559   1.931       .  S
C1554      C1555   1.415       .  A
C1555      C1556   1.408       .  A
C1555     Br1564   1.931       .  S
C1556     Br1560   1.930       .  S
C1565      C1566   1.410       .  A
C1565      C1570   1.409       .  A
C1566      C1567   1.409       .  A
C1566     Br1578   1.928       .  S
C1567      C1568   1.410       .  A
C1567     Br1582   1.928       .  S
C1568      C1569   1.410       .  A
C1568      C1571   1.488       .  S
C1569      C1570   1.407       .  A
C1569     Br1577   1.929       .  S
C1570     Br1581   1.929       .  S
C1571      C1572   1.410       .  A
C1571      C1576   1.408       .  A
C1572      C1573   1.411       .  A
C1572     Br1583   1.929       .  S
C1573      C1574   1.412       .  A
C1573     Br1579   1.928       .  S
C1574      C1575   1.414       .  A
C1575      C1576   1.408       .  A
C1575     Br1584   1.931   1_554  S
C1576     Br1580   1.931   1_554  S
C1585      C1586   1.409       .  A
C1585      C1590   1.408       .  A
C1586      C1587   1.405       .  A
C1586     Br1598   1.929       .  S
C1587      C1588   1.408       .  A
C1587     Br1602   1.929       .  S
C1588      C1589   1.410       .  A
C1588      C1591   1.481       .  S
C1589      C1590   1.406       .  A
C1589     Br1597   1.929       .  S
C1590     Br1601   1.929       .  S
C1591      C1592   1.409   1_554  A
C1591      C1596   1.409       .  A
C1592      C1593   1.406       .  A
C1592     Br1603   1.930       .  S
C1593      C1594   1.408       .  A
C1593     Br1599   1.929       .  S
C1594      C1595   1.409   1_556  A
C1595      C1596   1.407       .  A
C1595     Br1604   1.929       .  S
C1596     Br1600   1.929       .  S
C1605      C1606   1.422       .  A
C1605      C1610   1.419       .  A
C1606      C1607   1.406       .  A
C1606     Br1618   1.929       .  S
C1607      C1608   1.402       .  A
C1607     Br1622   1.933       .  S
C1608      C1609   1.403       .  A
C1608      C1611   1.477       .  S
C1609      C1610   1.406       .  A
C1609     Br1617   1.934       .  S
C1610     Br1621   1.921       .  S
C1611      C1612   1.406       .  A
C1611      C1616   1.408       .  A
C1612      C1613   1.404       .  A
C1612     Br1623   1.930       .  S
C1613      C1614   1.413       .  A
C1613     Br1619   1.932       .  S
C1614      C1615   1.411       .  A
C1615      C1616   1.405       .  A
C1615     Br1624   1.930       .  S
C1616     Br1620   1.931       .  S
C1625      C1626   1.410       .  A
C1625      C1630   1.406       .  A
C1626      C1627   1.406       .  A
C1626     Br1638   1.930       .  S
C1627      C1628   1.407       .  A
C1627     Br1642   1.928       .  S
C1628      C1629   1.411       .  A
C1628      C1631   1.480       .  S
C1629      C1630   1.405       .  A
C1629     Br1637   1.930       .  S
C1630     Br1641   1.928       .  S
C1631      C1632   1.408       .  A
C1631      C1636   1.407       .  A
C1632      C1633   1.407       .  A
C1632     Br1643   1.930       .  S
C1633      C1634   1.412       .  A
C1633     Br1639   1.929       .  S
C1634      C1635   1.411       .  A
C1635      C1636   1.405       .  A
C1635     Br1644   1.930       .  S
C1636     Br1640   1.930       .  S
C1645      C1646   1.407       .  A
C1645      C1650   1.409       .  A
C1646      C1647   1.403       .  A
C1646     Br1658   1.929       .  S
C1647      C1648   1.409       .  A
C1647     Br1662   1.930       .  S
C1648      C1649   1.406       .  A
C1648      C1651   1.473       .  S
C1649      C1650   1.403       .  A
C1649     Br1657   1.929       .  S
C1650     Br1661   1.929       .  S
C1651      C1652   1.408       .  A
C1651      C1656   1.406       .  A
C1652      C1653   1.405       .  A
C1652     Br1663   1.930       .  S
C1653      C1654   1.410       .  A
C1653     Br1659   1.929       .  S
C1654      C1655   1.409       .  A
C1655      C1656   1.402       .  A
C1655     Br1664   1.931       .  S
C1656     Br1660   1.930       .  S
C1665      C1666   1.411       .  A
C1665      C1670   1.409       .  A
C1666      C1667   1.408       .  A
C1666     Br1678   1.928       .  S
C1667      C1668   1.409       .  A
C1667     Br1682   1.929       .  S
C1668      C1669   1.410       .  A
C1668      C1671   1.485       .  S
C1669      C1670   1.406       .  A
C1669     Br1677   1.929       .  S
C1670     Br1681   1.929       .  S
C1671      C1672   1.409       .  A
C1671      C1676   1.409       .  A
C1672      C1673   1.408       .  A
C1672     Br1683   1.929       .  S
C1673      C1674   1.411       .  A
C1673     Br1679   1.930       .  S
C1674      C1675   1.409       .  A
C1675      C1676   1.407       .  A
C1675     Br1684   1.929   1_545  S
C1676     Br1680   1.929   1_545  S
C1685      C1686   1.410       .  A
C1685      C1690   1.410   1_545  A
C1686      C1687   1.409       .  A
C1686     Br1698   1.929       .  S
C1687      C1688   1.409       .  A
C1687     Br1702   1.928       .  S
C1688      C1689   1.408   1_545  A
C1688      C1691   1.483       .  S
C1689      C1690   1.405       .  A
C1689     Br1697   1.930       .  S
C1690     Br1701   1.930       .  S
C1691      C1692   1.409       .  A
C1691      C1696   1.409       .  A
C1692      C1693   1.407       .  A
C1692     Br1703   1.929       .  S
C1693      C1694   1.410       .  A
C1693     Br1699   1.928       .  S
C1694      C1695   1.409       .  A
C1695      C1696   1.407       .  A
C1695     Br1704   1.929       .  S
C1696     Br1700   1.929       .  S
C1705      C1706   1.410       .  A
C1705      C1710   1.412   1_545  A
C1706      C1707   1.405       .  A
C1706     Br1718   1.929       .  S
C1707      C1708   1.408       .  A
C1707     Br1722   1.930       .  S
C1708      C1709   1.407   1_545  A
C1708      C1711   1.478       .  S
C1709      C1710   1.406       .  A
C1709     Br1717   1.930       .  S
C1710     Br1721   1.930       .  S
C1711      C1712   1.407       .  A
C1711      C1716   1.410       .  A
C1712      C1713   1.404       .  A
C1712     Br1723   1.928   1_545  S
C1713      C1714   1.410       .  A
C1713     Br1719   1.930       .  S
C1714      C1715   1.407       .  A
C1715      C1716   1.404       .  A
C1715     Br1724   1.929       .  S
C1716     Br1720   1.929       .  S
C1725      C1726   1.407       .  A
C1725      C1730   1.409       .  A
C1726      C1727   1.406       .  A
C1726     Br1738   1.929   1_545  S
C1727      C1728   1.410       .  A
C1727     Br1742   1.928   1_545  S
C1728      C1729   1.408       .  A
C1728      C1731   1.480       .  S
C1729      C1730   1.405       .  A
C1729     Br1737   1.930       .  S
C1730     Br1741   1.930       .  S
C1731      C1732   1.408       .  A
C1731      C1736   1.409       .  A
C1732      C1733   1.407       .  A
C1732     Br1743   1.928       .  S
C1733      C1734   1.411       .  A
C1733     Br1739   1.930       .  S
C1734      C1735   1.409       .  A
C1735      C1736   1.404       .  A
C1735     Br1744   1.930       .  S
C1736     Br1740   1.931       .  S
C1745      C1746   1.418       .  A
C1745      C1750   1.422       .  A
C1746      C1747   1.407       .  A
C1746     Br1758   1.922       .  S
C1747      C1748   1.404       .  A
C1747     Br1762   1.934       .  S
C1748      C1749   1.407       .  A
C1748      C1751   1.487       .  S
C1749      C1750   1.411       .  A
C1749     Br1757   1.931       .  S
C1750     Br1761   1.935       .  S
C1751      C1752   1.407       .  A
C1751      C1756   1.409       .  A
C1752      C1753   1.408       .  A
C1752     Br1763   1.931       .  S
C1753      C1754   1.416       .  A
C1753     Br1759   1.932       .  S
C1754      C1755   1.414       .  A
C1755      C1756   1.409       .  A
C1755     Br1764   1.930       .  S
C1756     Br1760   1.931       .  S
C1765      C1766   1.410       .  A
C1765      C1770   1.408       .  A
C1766      C1767   1.406       .  A
C1766     Br1778   1.929       .  S
C1767      C1768   1.408       .  A
C1767     Br1782   1.928       .  S
C1768      C1769   1.410       .  A
C1768      C1771   1.479       .  S
C1769      C1770   1.404       .  A
C1769     Br1777   1.930       .  S
C1770     Br1781   1.930       .  S
C1771      C1772   1.408       .  A
C1771      C1776   1.407       .  A
C1772      C1773   1.408       .  A
C1772     Br1783   1.929       .  S
C1773      C1774   1.413       .  A
C1773     Br1779   1.930       .  S
C1774      C1775   1.411       .  A
C1775      C1776   1.404       .  A
C1775     Br1784   1.931       .  S
C1776     Br1780   1.931       .  S
C1785      C1786   1.410       .  A
C1785      C1790   1.409       .  A
C1786      C1787   1.407       .  A
C1786     Br1798   1.930       .  S
C1787      C1788   1.409       .  A
C1787     Br1802   1.929       .  S
C1788      C1789   1.410       .  A
C1788      C1791   1.485       .  S
C1789      C1790   1.408       .  A
C1789     Br1797   1.929       .  S
C1790     Br1801   1.928       .  S
C1791      C1792   1.410       .  A
C1791      C1796   1.408       .  A
C1792      C1793   1.408       .  A
C1792     Br1803   1.929       .  S
C1793      C1794   1.409       .  A
C1793     Br1799   1.929       .  S
C1794      C1795   1.411       .  A
C1795      C1796   1.406       .  A
C1795     Br1804   1.931       .  S
C1796     Br1800   1.929       .  S
C1805      C1806   1.410       .  A
C1805      C1810   1.412       .  A
C1806      C1807   1.405       .  A
C1806     Br1818   1.930       .  S
C1807      C1808   1.407       .  A
C1807     Br1822   1.929       .  S
C1808      C1809   1.408       .  A
C1808      C1811   1.478       .  S
C1809      C1810   1.405       .  A
C1809     Br1817   1.932       .  S
C1810     Br1821   1.931       .  S
C1811      C1812   1.405       .  A
C1811      C1816   1.404       .  A
C1812      C1813   1.407       .  A
C1812     Br1823   1.931       .  S
C1813      C1814   1.420       .  A
C1813     Br1819   1.935       .  S
C1814      C1815   1.415       .  A
C1815      C1816   1.405       .  A
C1815     Br1824   1.921       .  S
C1816     Br1820   1.933       .  S
C1825      C1826   1.408       .  A
C1825      C1830   1.409       .  A
C1826      C1827   1.407       .  A
C1826     Br1838   1.929       .  S
C1827      C1828   1.411       .  A
C1827     Br1842   1.929       .  S
C1828      C1829   1.409       .  A
C1828      C1831   1.484       .  S
C1829      C1830   1.406       .  A
C1829     Br1837   1.929       .  S
C1830     Br1841   1.929       .  S
C1831      C1832   1.410       .  A
C1831      C1836   1.409       .  A
C1832      C1833   1.405       .  A
C1832     Br1843   1.931       .  S
C1833      C1834   1.409       .  A
C1833     Br1839   1.929       .  S
C1834      C1835   1.411       .  A
C1835      C1836   1.409       .  A
C1835     Br1844   1.928       .  S
C1836     Br1840   1.928       .  S
C1845      C1846   1.408       .  A
C1845      C1850   1.409       .  A
C1846      C1847   1.403       .  A
C1846     Br1858   1.930       .  S
C1847      C1848   1.408       .  A
C1847     Br1862   1.930       .  S
C1848      C1849   1.410       .  A
C1848      C1851   1.478       .  S
C1849      C1850   1.405       .  A
C1849     Br1857   1.929       .  S
C1850     Br1861   1.930       .  S
C1851      C1852   1.407       .  A
C1851      C1856   1.408       .  A
C1852      C1853   1.404       .  A
C1852     Br1863   1.930       .  S
C1853      C1854   1.410       .  A
C1853     Br1859   1.930       .  S
C1854      C1855   1.411       .  A
C1855      C1856   1.406       .  A
C1855     Br1864   1.929       .  S
C1856     Br1860   1.931       .  S
C1865      C1866   1.411   1_455  A
C1865      C1870   1.410       .  A
C1866      C1867   1.408       .  A
C1866     Br1878   1.929       .  S
C1867      C1868   1.409   1_655  A
C1867     Br1882   1.930       .  S
C1868      C1869   1.408       .  A
C1868      C1871   1.484       .  S
C1869      C1870   1.407       .  A
C1869     Br1877   1.929       .  S
C1870     Br1881   1.930       .  S
C1871      C1872   1.410       .  A
C1871      C1876   1.409       .  A
C1872      C1873   1.405       .  A
C1872     Br1883   1.930       .  S
C1873      C1874   1.408       .  A
C1873     Br1879   1.929       .  S
C1874      C1875   1.410       .  A
C1875      C1876   1.409       .  A
C1875     Br1884   1.928       .  S
C1876     Br1880   1.928       .  S
C1885      C1886   1.408       .  A
C1885      C1890   1.411       .  A
C1886      C1887   1.405       .  A
C1886     Br1898   1.929       .  S
C1887      C1888   1.410       .  A
C1887     Br1902   1.929       .  S
C1888      C1889   1.408       .  A
C1888      C1891   1.481       .  S
C1889      C1890   1.406       .  A
C1889     Br1897   1.929       .  S
C1890     Br1901   1.930       .  S
C1891      C1892   1.409       .  A
C1891      C1896   1.408       .  A
C1892      C1893   1.407       .  A
C1892     Br1903   1.930       .  S
C1893      C1894   1.410       .  A
C1893     Br1899   1.929       .  S
C1894      C1895   1.410       .  A
C1895      C1896   1.406       .  A
C1895     Br1904   1.929   1_455  S
C1896     Br1900   1.930   1_455  S
C1905      C1906   1.408       .  A
C1905      C1910   1.408       .  A
C1906      C1907   1.406       .  A
C1906     Br1918   1.930   1_455  S
C1907      C1908   1.410       .  A
C1907     Br1922   1.929   1_455  S
C1908      C1909   1.409       .  A
C1908      C1911   1.484       .  S
C1909      C1910   1.407       .  A
C1909     Br1917   1.927       .  S
C1910     Br1921   1.929       .  S
C1911      C1912   1.407       .  A
C1911      C1916   1.409   1_455  A
C1912      C1913   1.407       .  A
C1912     Br1923   1.930       .  S
C1913      C1914   1.413       .  A
C1913     Br1919   1.931       .  S
C1914      C1915   1.413   1_455  A
C1915      C1916   1.409       .  A
C1915     Br1924   1.929       .  S
C1916     Br1920   1.930       .  S
C1925      C1926   1.408       .  A
C1925      C1930   1.410       .  A
C1926      C1927   1.406       .  A
C1926     Br1938   1.929       .  S
C1927      C1928   1.411       .  A
C1927     Br1942   1.930       .  S
C1928      C1929   1.407       .  A
C1928      C1931   1.482       .  S
C1929      C1930   1.406       .  A
C1929     Br1937   1.928       .  S
C1930     Br1941   1.930       .  S
C1931      C1932   1.407   1_455  A
C1931      C1936   1.408       .  A
C1932      C1933   1.406       .  A
C1932     Br1943   1.929       .  S
C1933      C1934   1.411   1_655  A
C1933     Br1939   1.930       .  S
C1934      C1935   1.412       .  A
C1935      C1936   1.407       .  A
C1935     Br1944   1.929       .  S
C1936     Br1940   1.930       .  S
C1945      C1946   1.420       .  A
C1945      C1950   1.415       .  A
C1946      C1947   1.409       .  A
C1946     Br1958   1.935       .  S
C1947      C1948   1.407       .  A
C1947     Br1962   1.932       .  S
C1948      C1949   1.407       .  A
C1948      C1951   1.489       .  S
C1949      C1950   1.410       .  A
C1949     Br1957   1.930       .  S
C1950     Br1961   1.924       .  S
C1951      C1952   1.410       .  A
C1951      C1956   1.409       .  A
C1952      C1953   1.410       .  A
C1952     Br1963   1.929       .  S
C1953      C1954   1.411       .  A
C1953     Br1959   1.929       .  S
C1954      C1955   1.411       .  A
C1955      C1956   1.409       .  A
C1955     Br1964   1.929       .  S
C1956     Br1960   1.930       .  S
C1965      C1966   1.412       .  A
C1965      C1970   1.413       .  A
C1966      C1967   1.406       .  A
C1966     Br1978   1.930       .  S
C1967      C1968   1.407       .  A
C1967     Br1982   1.930       .  S
C1968      C1969   1.409       .  A
C1968      C1971   1.484       .  S
C1969      C1970   1.409       .  A
C1969     Br1977   1.930       .  S
C1970     Br1981   1.930       .  S
C1971      C1972   1.408       .  A
C1971      C1976   1.410       .  A
C1972      C1973   1.408       .  A
C1972     Br1983   1.928       .  S
C1973      C1974   1.410       .  A
C1973     Br1979   1.928       .  S
C1974      C1975   1.409       .  A
C1975      C1976   1.406       .  A
C1975     Br1984   1.929       .  S
C1976     Br1980   1.930       .  S
C1985      C1986   1.408       .  A
C1985      C1990   1.409       .  A
C1986      C1987   1.406       .  A
C1986     Br1998   1.929       .  S
C1987      C1988   1.411       .  A
C1987     Br2002   1.930       .  S
C1988      C1989   1.409       .  A
C1988      C1991   1.485       .  S
C1989      C1990   1.406       .  A
C1989     Br1997   1.928       .  S
C1990     Br2001   1.930       .  S
C1991      C1992   1.408       .  A
C1991      C1996   1.409       .  A
C1992      C1993   1.407       .  A
C1992     Br2003   1.931       .  S
C1993      C1994   1.412       .  A
C1993     Br1999   1.930       .  S
C1994      C1995   1.412       .  A
C1995      C1996   1.409       .  A
C1995     Br2004   1.930       .  S
C1996     Br2000   1.930       .  S
C2005      C2006   1.416       .  A
C2005      C2010   1.415       .  A
C2006      C2007   1.407       .  A
C2006     Br2018   1.931       .  S
C2007      C2008   1.407       .  A
C2007     Br2022   1.932       .  S
C2008      C2009   1.408       .  A
C2008      C2011   1.484       .  S
C2009      C2010   1.409       .  A
C2009     Br2017   1.930       .  S
C2010     Br2021   1.930       .  S
C2011      C2012   1.404       .  A
C2011      C2016   1.403       .  A
C2012      C2013   1.409       .  A
C2012     Br2023   1.931       .  S
C2013      C2014   1.424       .  A
C2013     Br2019   1.936       .  S
C2014      C2015   1.422       .  A
C2015      C2016   1.407       .  A
C2015     Br2024   1.922       .  S
C2016     Br2020   1.936       .  S
C2025      C2026   1.408       .  A
C2025      C2030   1.410       .  A
C2026      C2027   1.405       .  A
C2026     Br2038   1.929       .  S
C2027      C2028   1.410       .  A
C2027     Br2042   1.929       .  S
C2028      C2029   1.408       .  A
C2028      C2031   1.482       .  S
C2029      C2030   1.407       .  A
C2029     Br2037   1.928       .  S
C2030     Br2041   1.929       .  S
C2031      C2032   1.408       .  A
C2031      C2036   1.408       .  A
C2032      C2033   1.409       .  A
C2032     Br2043   1.929       .  S
C2033      C2034   1.411       .  A
C2033     Br2039   1.928       .  S
C2034      C2035   1.410       .  A
C2035      C2036   1.406       .  A
C2035     Br2044   1.930       .  S
C2036     Br2040   1.931       .  S
C2045      C2046   1.411       .  A
C2045      C2050   1.411       .  A
C2046      C2047   1.405       .  A
C2046     Br2058   1.930       .  S
C2047      C2048   1.408       .  A
C2047     Br2062   1.930       .  S
C2048      C2049   1.408       .  A
C2048      C2051   1.479       .  S
C2049      C2050   1.406       .  A
C2049     Br2057   1.930       .  S
C2050     Br2061   1.929       .  S
C2051      C2052   1.410       .  A
C2051      C2056   1.408       .  A
C2052      C2053   1.404       .  A
C2052     Br2063   1.930       .  S
C2053      C2054   1.408       .  A
C2053     Br2059   1.930       .  S
C2054      C2055   1.409       .  A
C2055      C2056   1.405       .  A
C2055     Br2064   1.929       .  S
C2056     Br2060   1.929       .  S
C2065      C2066   1.407       .  A
C2065      C2070   1.409       .  A
C2066      C2067   1.404       .  A
C2066     Br2078   1.929       .  S
C2067      C2068   1.410       .  A
C2067     Br2082   1.930       .  S
C2068      C2069   1.406       .  A
C2068      C2071   1.477       .  S
C2069      C2070   1.404       .  A
C2069     Br2077   1.928       .  S
C2070     Br2081   1.928       .  S
C2071      C2072   1.408       .  A
C2071      C2076   1.407       .  A
C2072      C2073   1.403       .  A
C2072     Br2083   1.931   1_554  S
C2073      C2074   1.408       .  A
C2073     Br2079   1.930   1_554  S
C2074      C2075   1.412       .  A
C2075      C2076   1.407       .  A
C2075     Br2084   1.929       .  S
C2076     Br2080   1.929       .  S
C2085      C2086   1.408       .  A
C2085      C2090   1.408   1_556  A
C2086      C2087   1.405       .  A
C2086     Br2098   1.929       .  S
C2087      C2088   1.409       .  A
C2087     Br2102   1.930       .  S
C2088      C2089   1.411   1_556  A
C2088      C2091   1.483       .  S
C2089      C2090   1.408       .  A
C2089     Br2097   1.929       .  S
C2090     Br2101   1.929       .  S
C2091      C2092   1.409       .  A
C2091      C2096   1.411   1_556  A
C2092      C2093   1.407       .  A
C2092     Br2103   1.928       .  S
C2093      C2094   1.409   1_556  A
C2093     Br2099   1.929       .  S
C2094      C2095   1.408       .  A
C2095      C2096   1.406       .  A
C2095     Br2104   1.929       .  S
C2096     Br2100   1.930       .  S
C2105      C2106   1.409       .  A
C2105      C2110   1.411       .  A
C2106      C2107   1.407       .  A
C2106     Br2118   1.928   1_554  S
C2107      C2108   1.409       .  A
C2107     Br2122   1.929   1_554  S
C2108      C2109   1.409       .  A
C2108      C2111   1.483       .  S
C2109      C2110   1.407       .  A
C2109     Br2117   1.930       .  S
C2110     Br2121   1.929       .  S
C2111      C2112   1.408       .  A
C2111      C2116   1.409       .  A
C2112      C2113   1.406       .  A
C2112     Br2123   1.930       .  S
C2113      C2114   1.412       .  A
C2113     Br2119   1.931       .  S
C2114      C2115   1.411       .  A
C2115      C2116   1.406       .  A
C2115     Br2124   1.931       .  S
C2116     Br2120   1.929       .  S
C2125      C2126   1.409   1_556  A
C2125      C2130   1.408       .  A
C2126      C2127   1.408       .  A
C2126     Br2138   1.928       .  S
C2127      C2128   1.409   1_554  A
C2127     Br2142   1.928       .  S
C2128      C2129   1.409       .  A
C2128      C2131   1.482   1_556  S
C2129      C2130   1.405       .  A
C2129     Br2137   1.930       .  S
C2130     Br2141   1.929       .  S
C2131      C2132   1.407   1_554  A
C2131      C2136   1.411       .  A
C2132      C2133   1.407   1_556  A
C2132     Br2143   1.929       .  S
C2133      C2134   1.412       .  A
C2133     Br2139   1.929   1_554  S
C2134      C2135   1.408       .  A
C2135      C2136   1.406       .  A
C2135     Br2144   1.929       .  S
C2136     Br2140   1.929       .  S
C2145      C2146   1.410       .  A
C2145      C2150   1.411       .  A
C2146      C2147   1.406       .  A
C2146     Br2158   1.930       .  S
C2147      C2148   1.408       .  A
C2147     Br2162   1.929       .  S
C2148      C2149   1.409       .  A
C2148      C2151   1.481       .  S
C2149      C2150   1.405       .  A
C2149     Br2157   1.932       .  S
C2150     Br2161   1.931       .  S
C2151      C2152   1.403       .  A
C2151      C2156   1.403       .  A
C2152      C2153   1.407       .  A
C2152     Br2163   1.934       .  S
C2153      C2154   1.425       .  A
C2153     Br2159   1.936       .  S
C2154      C2155   1.423       .  A
C2155      C2156   1.408       .  A
C2155     Br2164   1.923       .  S
C2156     Br2160   1.936       .  S
C2165      C2166   1.407       .  A
C2165      C2170   1.408       .  A
C2166      C2167   1.402       .  A
C2166     Br2178   1.930       .  S
C2167      C2168   1.408       .  A
C2167     Br2182   1.929       .  S
C2168      C2169   1.408       .  A
C2168      C2171   1.474       .  S
C2169      C2170   1.403       .  A
C2169     Br2177   1.929       .  S
C2170     Br2181   1.930       .  S
C2171      C2172   1.407       .  A
C2171      C2176   1.408       .  A
C2172      C2173   1.404       .  A
C2172     Br2183   1.930       .  S
C2173      C2174   1.409       .  A
C2173     Br2179   1.929       .  S
C2174      C2175   1.408       .  A
C2175      C2176   1.403       .  A
C2175     Br2184   1.929       .  S
C2176     Br2180   1.931       .  S
C2185      C2186   1.408       .  A
C2185      C2190   1.409       .  A
C2186      C2187   1.401       .  A
C2186     Br2198   1.932       .  S
C2187      C2188   1.410       .  A
C2187     Br2202   1.932       .  S
C2188      C2189   1.407       .  A
C2188      C2191   1.476       .  S
C2189      C2190   1.405       .  A
C2189     Br2197   1.927       .  S
C2190     Br2201   1.928       .  S
C2191      C2192   1.407       .  A
C2191      C2196   1.407       .  A
C2192      C2193   1.402       .  A
C2192     Br2203   1.932       .  S
C2193      C2194   1.411       .  A
C2193     Br2199   1.932       .  S
C2194      C2195   1.412       .  A
C2195      C2196   1.406       .  A
C2195     Br2204   1.929       .  S
C2196     Br2200   1.929       .  S
C2205      C2206   1.420       .  A
C2205      C2210   1.423       .  A
C2206      C2207   1.410       .  A
C2206     Br2218   1.919       .  S
C2207      C2208   1.404       .  A
C2207     Br2222   1.934       .  S
C2208      C2209   1.403       .  A
C2208      C2211   1.488       .  S
C2209      C2210   1.411       .  A
C2209     Br2217   1.933       .  S
C2210     Br2221   1.921       .  S
C2211      C2212   1.408       .  A
C2211      C2216   1.408       .  A
C2212      C2213   1.409       .  A
C2212     Br2223   1.931       .  S
C2213      C2214   1.415       .  A
C2213     Br2219   1.931       .  S
C2214      C2215   1.414       .  A
C2215      C2216   1.409       .  A
C2215     Br2224   1.930       .  S
C2216     Br2220   1.930       .  S
C2225      C2226   1.409       .  A
C2225      C2230   1.411       .  A
C2226      C2227   1.407       .  A
C2226     Br2238   1.929       .  S
C2227      C2228   1.408       .  A
C2227     Br2242   1.929       .  S
C2228      C2229   1.408       .  A
C2228      C2231   1.482       .  S
C2229      C2230   1.406       .  A
C2229     Br2237   1.930       .  S
C2230     Br2241   1.930       .  S
C2231      C2232   1.411       .  A
C2231      C2236   1.407       .  A
C2232      C2233   1.407       .  A
C2232     Br2243   1.929       .  S
C2233      C2234   1.408       .  A
C2233     Br2239   1.929       .  S
C2234      C2235   1.409       .  A
C2235      C2236   1.405       .  A
C2235     Br2244   1.929       .  S
C2236     Br2240   1.928       .  S
C2245      C2246   1.412       .  A
C2245      C2250   1.412       .  A
C2246      C2247   1.408       .  A
C2246     Br2258   1.931       .  S
C2247      C2248   1.410       .  A
C2247     Br2262   1.930       .  S
C2248      C2249   1.408       .  A
C2248      C2251   1.485       .  S
C2249      C2250   1.407       .  A
C2249     Br2257   1.929       .  S
C2250     Br2261   1.930       .  S
C2251      C2252   1.409       .  A
C2251      C2256   1.410       .  A
C2252      C2253   1.407       .  A
C2252     Br2263   1.930       .  S
C2253      C2254   1.409       .  A
C2253     Br2259   1.929       .  S
C2254      C2255   1.408       .  A
C2255      C2256   1.408       .  A
C2255     Br2264   1.929       .  S
C2256     Br2260   1.928       .  S
C2265      C2266   1.410       .  A
C2265      C2270   1.412       .  A
C2266      C2267   1.408       .  A
C2266     Br2278   1.929       .  S
C2267      C2268   1.410       .  A
C2267     Br2282   1.930       .  S
C2268      C2269   1.409       .  A
C2268      C2271   1.487       .  S
C2269      C2270   1.409       .  A
C2269     Br2277   1.929       .  S
C2270     Br2281   1.930       .  S
C2271      C2272   1.407       .  A
C2271      C2276   1.403       .  A
C2272      C2273   1.412       .  A
C2272     Br2283   1.931       .  S
C2273      C2274   1.422       .  A
C2273     Br2279   1.934       .  S
C2274      C2275   1.418       .  A
C2275      C2276   1.407       .  A
C2275     Br2284   1.920       .  S
C2276     Br2280   1.934       .  S
C2285      C2286   1.409       .  A
C2285      C2290   1.411       .  A
C2286      C2287   1.407       .  A
C2286     Br2298   1.929       .  S
C2287      C2288   1.410       .  A
C2287     Br2302   1.929       .  S
C2288      C2289   1.408       .  A
C2288      C2291   1.485       .  S
C2289      C2290   1.408       .  A
C2289     Br2297   1.928       .  S
C2290     Br2301   1.929       .  S
C2291      C2292   1.408       .  A
C2291      C2296   1.409       .  A
C2292      C2293   1.408       .  A
C2292     Br2303   1.930       .  S
C2293      C2294   1.412       .  A
C2293     Br2299   1.930       .  S
C2294      C2295   1.411       .  A
C2295      C2296   1.408       .  A
C2295     Br2304   1.930       .  S
C2296     Br2300   1.929       .  S
C2305      C2306   1.409       .  A
C2305      C2310   1.411       .  A
C2306      C2307   1.405       .  A
C2306     Br2318   1.929       .  S
C2307      C2308   1.408       .  A
C2307     Br2322   1.930       .  S
C2308      C2309   1.408       .  A
C2308      C2311   1.479       .  S
C2309      C2310   1.406       .  A
C2309     Br2317   1.930       .  S
C2310     Br2321   1.930       .  S
C2311      C2312   1.409       .  A
C2311      C2316   1.408       .  A
C2312      C2313   1.404       .  A
C2312     Br2323   1.929       .  S
C2313      C2314   1.409       .  A
C2313     Br2319   1.930       .  S
C2314      C2315   1.409       .  A
C2315      C2316   1.405       .  A
C2315     Br2324   1.929       .  S
C2316     Br2320   1.929       .  S
C2325      C2326   1.413       .  A
C2325      C2330   1.419       .  A
C2326      C2327   1.409       .  A
C2326     Br2338   1.920       .  S
C2327      C2328   1.407       .  A
C2327     Br2342   1.931       .  S
C2328      C2329   1.404       .  A
C2328      C2331   1.485       .  S
C2329      C2330   1.407       .  A
C2329     Br2337   1.932       .  S
C2330     Br2341   1.923       .  S
C2331      C2332   1.408       .  A
C2331      C2336   1.408       .  A
C2332      C2333   1.408       .  A
C2332     Br2343   1.930       .  S
C2333      C2334   1.412       .  A
C2333     Br2339   1.929       .  S
C2334      C2335   1.413       .  A
C2335      C2336   1.408       .  A
C2335     Br2344   1.930       .  S
C2336     Br2340   1.930       .  S
C2345      C2346   1.409       .  A
C2345      C2350   1.409       .  A
C2346      C2347   1.406       .  A
C2346     Br2358   1.929       .  S
C2347      C2348   1.408       .  A
C2347     Br2362   1.929       .  S
C2348      C2349   1.409       .  A
C2348      C2351   1.481       .  S
C2349      C2350   1.406       .  A
C2349     Br2357   1.929       .  S
C2350     Br2361   1.928       .  S
C2351      C2352   1.407       .  A
C2351      C2356   1.408       .  A
C2352      C2353   1.406       .  A
C2352     Br2363   1.930       .  S
C2353      C2354   1.413       .  A
C2353     Br2359   1.931       .  S
C2354      C2355   1.412       .  A
C2355      C2356   1.408       .  A
C2355     Br2364   1.930       .  S
C2356     Br2360   1.931       .  S
C2365      C2366   1.409       .  A
C2365      C2370   1.407       .  A
C2366      C2367   1.405       .  A
C2366     Br2378   1.930       .  S
C2367      C2368   1.407       .  A
C2367     Br2382   1.928       .  S
C2368      C2369   1.411       .  A
C2368      C2371   1.480       .  S
C2369      C2370   1.405       .  A
C2369     Br2377   1.930       .  S
C2370     Br2381   1.929       .  S
C2371      C2372   1.408       .  A
C2371      C2376   1.409       .  A
C2372      C2373   1.406       .  A
C2372     Br2383   1.929       .  S
C2373      C2374   1.409       .  A
C2373     Br2379   1.929       .  S
C2374      C2375   1.408       .  A
C2375      C2376   1.406       .  A
C2375     Br2384   1.928       .  S
C2376     Br2380   1.929       .  S
C2385      C2386   1.424       .  A
C2385      C2390   1.424       .  A
C2386      C2387   1.412       .  A
C2386     Br2398   1.919       .  S
C2387      C2388   1.404       .  A
C2387     Br2402   1.933       .  S
C2388      C2389   1.402       .  A
C2388      C2391   1.489       .  S
C2389      C2390   1.410       .  A
C2389     Br2397   1.934       .  S
C2390     Br2401   1.918       .  S
C2391      C2392   1.408       .  A
C2391      C2396   1.410       .  A
C2392      C2393   1.409       .  A
C2392     Br2403   1.929       .  S
C2393      C2394   1.413       .  A
C2393     Br2399   1.930       .  S
C2394      C2395   1.412       .  A
C2395      C2396   1.409       .  A
C2395     Br2404   1.930       .  S
C2396     Br2400   1.930       .  S
C2405      C2406   1.423       .  A
C2405      C2410   1.416       .  A
C2406      C2407   1.411       .  A
C2406     Br2418   1.935       .  S
C2407      C2408   1.406       .  A
C2407     Br2422   1.930       .  S
C2408      C2409   1.405       .  A
C2408      C2411   1.484       .  S
C2409      C2410   1.405       .  A
C2409     Br2417   1.935       .  S
C2410     Br2421   1.921       .  S
C2411      C2412   1.407       .  A
C2411      C2416   1.408       .  A
C2412      C2413   1.408       .  A
C2412     Br2423   1.929       .  S
C2413      C2414   1.414       .  A
C2413     Br2419   1.931   1_556  S
C2414      C2415   1.414       .  A
C2415      C2416   1.407       .  A
C2415     Br2424   1.930       .  S
C2416     Br2420   1.931       .  S
C2425      C2426   1.420       .  A
C2425      C2430   1.417       .  A
C2426      C2427   1.406       .  A
C2426     Br2438   1.936       .  S
C2427      C2428   1.405       .  A
C2427     Br2442   1.932       .  S
C2428      C2429   1.403       .  A
C2428      C2431   1.478       .  S
C2429      C2430   1.406       .  A
C2429     Br2437   1.933       .  S
C2430     Br2441   1.920       .  S
C2431      C2432   1.406       .  A
C2431      C2436   1.407       .  A
C2432      C2433   1.404       .  A
C2432     Br2443   1.932       .  S
C2433      C2434   1.414       .  A
C2433     Br2439   1.932       .  S
C2434      C2435   1.413       .  A
C2435      C2436   1.406       .  A
C2435     Br2444   1.930       .  S
C2436     Br2440   1.930       .  S
C2445      C2446   1.425       .  A
C2445      C2450   1.427       .  A
C2446      C2447   1.411       .  A
C2446     Br2458   1.924       .  S
C2447      C2448   1.406       .  A
C2447     Br2462   1.935       .  S
C2448      C2449   1.405       .  A
C2448      C2451   1.492       .  S
C2449      C2450   1.408       .  A
C2449     Br2457   1.930       .  S
C2450     Br2461   1.936       .  S
C2451      C2452   1.412       .  A
C2451      C2456   1.409       .  A
C2452      C2453   1.411   1_565  A
C2452     Br2463   1.931   1_565  S
C2453      C2454   1.410   1_545  A
C2453     Br2459   1.923       .  S
C2454      C2455   1.414       .  A
C2455      C2456   1.408       .  A
C2455     Br2464   1.931       .  S
C2456     Br2460   1.931       .  S
C2465      C2466   1.418       .  A
C2465      C2470   1.416       .  A
C2466      C2467   1.408       .  A
C2466     Br2478   1.928       .  S
C2467      C2468   1.406       .  A
C2467     Br2482   1.932       .  S
C2468      C2469   1.405       .  A
C2468      C2471   1.485       .  S
C2469      C2470   1.410       .  A
C2469     Br2477   1.932       .  S
C2470     Br2481   1.916       .  S
C2471      C2472   1.410       .  A
C2471      C2476   1.409       .  A
C2472      C2473   1.409       .  A
C2472     Br2483   1.928       .  S
C2473      C2474   1.409       .  A
C2473     Br2479   1.929       .  S
C2474      C2475   1.410       .  A
C2475      C2476   1.406       .  A
C2475     Br2484   1.930       .  S
C2476     Br2480   1.931       .  S
C2485      C2486   1.416       .  A
C2485      C2490   1.413       .  A
C2486      C2487   1.412       .  A
C2486     Br2498   1.931   1_565  S
C2487      C2488   1.409       .  A
C2487     Br2502   1.929       .  S
C2488      C2489   1.410       .  A
C2488      C2491   1.495       .  S
C2489      C2490   1.410       .  A
C2489     Br2497   1.929       .  S
C2490     Br2501   1.930       .  S
C2491      C2492   1.408       .  A
C2491      C2496   1.409       .  A
C2492      C2493   1.412       .  A
C2492     Br2503   1.930       .  S
C2493      C2494   1.421       .  A
C2493     Br2499   1.935       .  S
C2494      C2495   1.413       .  A
C2495      C2496   1.411       .  A
C2495     Br2504   1.926       .  S
C2496     Br2500   1.930       .  S
C2505      C2506   1.423       .  A
C2505      C2510   1.423       .  A
C2506      C2507   1.411       .  A
C2506     Br2518   1.926       .  S
C2507      C2508   1.405       .  A
C2507     Br2522   1.934       .  S
C2508      C2509   1.407       .  A
C2508      C2511   1.495       .  S
C2509      C2510   1.414       .  A
C2509     Br2517   1.933       .  S
C2510     Br2521   1.924       .  S
C2511      C2512   1.411       .  A
C2511      C2516   1.410       .  A
C2512      C2513   1.411       .  A
C2512     Br2523   1.930       .  S
C2513      C2514   1.413       .  A
C2513     Br2519   1.930       .  S
C2514      C2515   1.414       .  A
C2515      C2516   1.411       .  A
C2515     Br2524   1.930       .  S
C2516     Br2520   1.930       .  S
C2525      C2526   1.429       .  A
C2525      C2530   1.426       .  A
C2526      C2527   1.412       .  A
C2526     Br2538   1.930       .  S
C2527      C2528   1.404       .  A
C2527     Br2542   1.933       .  S
C2528      C2529   1.403       .  A
C2528      C2531   1.489       .  S
C2529      C2530   1.409       .  A
C2529     Br2537   1.933       .  S
C2530     Br2541   1.925       .  S
C2531      C2532   1.403       .  A
C2531      C2536   1.408       .  A
C2532      C2533   1.404       .  A
C2532     Br2543   1.934       .  S
C2533      C2534   1.420       .  A
C2533     Br2539   1.928   1_565  S
C2534      C2535   1.424   1_655  A
C2535      C2536   1.415   1_455  A
C2535     Br2544   1.925       .  S
C2536     Br2540   1.932   1_655  S
C2545      C2546   1.417       .  A
C2545      C2550   1.417       .  A
C2546      C2547   1.408       .  A
C2546     Br2558   1.915       .  S
C2547      C2548   1.403       .  A
C2547     Br2562   1.932       .  S
C2548      C2549   1.404       .  A
C2548      C2551   1.482       .  S
C2549      C2550   1.408       .  A
C2549     Br2557   1.933       .  S
C2550     Br2561   1.915       .  S
C2551      C2552   1.409       .  A
C2551      C2556   1.409       .  A
C2552      C2553   1.407       .  A
C2552     Br2563   1.929       .  S
C2553      C2554   1.409       .  A
C2553     Br2559   1.930       .  S
C2554      C2555   1.408       .  A
C2555      C2556   1.406       .  A
C2555     Br2564   1.929       .  S
C2556     Br2560   1.930       .  S
C2565      C2566   1.432       .  A
C2565      C2570   1.435       .  A
C2566      C2567   1.409       .  A
C2566     Br2578   1.934       .  S
C2567      C2568   1.400       .  A
C2567     Br2582   1.937       .  S
C2568      C2569   1.401       .  A
C2568      C2571   1.486       .  S
C2569      C2570   1.413       .  A
C2569     Br2577   1.937       .  S
C2570     Br2581   1.930       .  S
C2571      C2572   1.408       .  A
C2571      C2576   1.408       .  A
C2572      C2573   1.407       .  A
C2572     Br2583   1.931       .  S
C2573      C2574   1.414       .  A
C2573     Br2579   1.932       .  S
C2574      C2575   1.415       .  A
C2575      C2576   1.409       .  A
C2575     Br2584   1.930       .  S
C2576     Br2580   1.930       .  S
C2585      C2586   1.409       .  A
C2585      C2590   1.408       .  A
C2586      C2587   1.408       .  A
C2586     Br2598   1.928   1_655  S
C2587      C2588   1.409       .  A
C2587     Br2602   1.929       .  S
C2588      C2589   1.409       .  A
C2588      C2591   1.484       .  S
C2589      C2590   1.407       .  A
C2589     Br2597   1.930       .  S
C2590     Br2601   1.929       .  S
C2591      C2592   1.409       .  A
C2591      C2596   1.407       .  A
C2592      C2593   1.409       .  A
C2592     Br2603   1.927       .  S
C2593      C2594   1.411       .  A
C2593     Br2599   1.930       .  S
C2594      C2595   1.411       .  A
C2595      C2596   1.405       .  A
C2595     Br2604   1.931       .  S
C2596     Br2600   1.929       .  S
C2605      C2606   1.426       .  A
C2605      C2610   1.425       .  A
C2606      C2607   1.412       .  A
C2606     Br2618   1.926       .  S
C2607      C2608   1.406       .  A
C2607     Br2622   1.933       .  S
C2608      C2609   1.403       .  A
C2608      C2611   1.488       .  S
C2609      C2610   1.406       .  A
C2609     Br2617   1.931       .  S
C2610     Br2621   1.934       .  S
C2611      C2612   1.405       .  A
C2611      C2616   1.405       .  A
C2612      C2613   1.409       .  A
C2612     Br2623   1.934       .  S
C2613      C2614   1.426       .  A
C2613     Br2619   1.931   1_556  S
C2614      C2615   1.424       .  A
C2615      C2616   1.411       .  A
C2615     Br2624   1.931       .  S
C2616     Br2620   1.930       .  S
C2625      C2626   1.413       .  A
C2625      C2630   1.414       .  A
C2626      C2627   1.410       .  A
C2626     Br2638   1.929       .  S
C2627      C2628   1.409       .  A
C2627     Br2642   1.929       .  S
C2628      C2629   1.409       .  A
C2628      C2631   1.490       .  S
C2629      C2630   1.409       .  A
C2629     Br2637   1.931       .  S
C2630     Br2641   1.930       .  S
C2631      C2632   1.402       .  A
C2631      C2636   1.403       .  A
C2632      C2633   1.411       .  A
C2632     Br2643   1.935       .  S
C2633      C2634   1.425       .  A
C2633     Br2639   1.917       .  S
C2634      C2635   1.424       .  A
C2635      C2636   1.412       .  A
C2635     Br2644   1.920       .  S
C2636     Br2640   1.933       .  S
C2645      C2646   1.415       .  A
C2645      C2650   1.421       .  A
C2646      C2647   1.408       .  A
C2646     Br2658   1.923       .  S
C2647      C2648   1.406       .  A
C2647     Br2662   1.932       .  S
C2648      C2649   1.406       .  A
C2648      C2651   1.486       .  S
C2649      C2650   1.410       .  A
C2649     Br2657   1.930       .  S
C2650     Br2661   1.934       .  S
C2651      C2652   1.409       .  A
C2651      C2656   1.409       .  A
C2652      C2653   1.408       .  A
C2652     Br2663   1.929       .  S
C2653      C2654   1.411       .  A
C2653     Br2659   1.929       .  S
C2654      C2655   1.412       .  A
C2655      C2656   1.408       .  A
C2655     Br2664   1.930       .  S
C2656     Br2660   1.930       .  S
C2665      C2666   1.412       .  A
C2665      C2670   1.412       .  A
C2666      C2667   1.409       .  A
C2666     Br2678   1.931       .  S
C2667      C2668   1.411       .  A
C2667     Br2682   1.930       .  S
C2668      C2669   1.411       .  A
C2668      C2671   1.491       .  S
C2669      C2670   1.409       .  A
C2669     Br2677   1.931       .  S
C2670     Br2681   1.930       .  S
C2671      C2672   1.408       .  A
C2671      C2676   1.407       .  A
C2672      C2673   1.411       .  A
C2672     Br2683   1.931       .  S
C2673      C2674   1.421       .  A
C2673     Br2679   1.935       .  S
C2674      C2675   1.417       .  A
C2675      C2676   1.409       .  A
C2675     Br2684   1.919       .  S
C2676     Br2680   1.934       .  S
C2685      C2686   1.418       .  A
C2685      C2690   1.425       .  A
C2686      C2687   1.408       .  A
C2686     Br2698   1.927       .  S
C2687      C2688   1.409       .  A
C2687     Br2702   1.934       .  S
C2688      C2689   1.407       .  A
C2688      C2691   1.495       .  S
C2689      C2690   1.412       .  A
C2689     Br2697   1.931       .  S
C2690     Br2701   1.936       .  S
C2691      C2692   1.406       .  A
C2691      C2696   1.406       .  A
C2692      C2693   1.409       .  A
C2692     Br2703   1.933       .  S
C2693      C2694   1.428       .  A
C2693     Br2699   1.936       .  S
C2694      C2695   1.426       .  A
C2695      C2696   1.413       .  A
C2695     Br2704   1.922       .  S
C2696     Br2700   1.935       .  S
