geometry optimzed in LAMMPS
_audit_creation_date              2020-12-01 
_audit_creation_method            'lammps2cif' 
_symmetry_space_group_name_H-M    'P1' 
_symmetry_Int_Tables_number       1 
_symmetry_cell_setting            triclinic 
loop_ 
_symmetry_equiv_pos_as_xyz 
  x,y,z 
_cell_length_a                    33.42666325 
_cell_length_b                    33.60657555365613 
_cell_length_c                    33.55807479659352 
_cell_angle_alpha                 89.87292718853453 
_cell_angle_beta                  89.50866539262432 
_cell_angle_gamma                 89.3264646641092 
loop_ 
_atom_site_label 
_atom_site_type_symbol 
_atom_site_fract_x 
_atom_site_fract_y 
_atom_site_fract_z 
_atom_site_charge 
C1          C  0.79520548  0.27816181  0.53676742     0.03100
C2          C  0.77654279  0.26312548  0.50188220    -0.13100
C3          C  0.79247204  0.27265059  0.46352602     0.00600
C4          C  0.82636470  0.29635647  0.46090619    -0.11600
C5          C  0.84340968  0.31255451  0.49474526     0.03100
C6          C  0.82826621  0.30304714  0.53241397    -0.11000
H7          H  0.74992561  0.24524633  0.50449608     0.08600
H8          H  0.83803611  0.30464560  0.43178889     0.06200
H9          H  0.84123346  0.31651179  0.55858360     0.06000
C10         C  0.44572044  0.80149223  0.26232600     0.03100
C11         C  0.44481581  0.83438072  0.28780867    -0.13100
C12         C  0.47965384  0.84807502  0.30505847     0.00600
C13         C  0.51648955  0.83193600  0.29361666    -0.11600
C14         C  0.51941113  0.80020573  0.26711482     0.03100
C15         C  0.48349089  0.78402899  0.25147128    -0.11000
H16         H  0.41634814  0.84791178  0.29616964     0.08600
H17         H  0.54355007  0.84298549  0.30717631     0.06200
H18         H  0.48478116  0.75808008  0.23244688     0.06000
C19         C  0.28701219  0.55133291  0.78112021     0.03100
C20         C  0.32480932  0.54730934  0.79862595    -0.13100
C21         C  0.33887521  0.51072823  0.81152085     0.00600
C22         C  0.32047329  0.47616185  0.79998615    -0.11600
C23         C  0.28682422  0.47745788  0.77566047     0.03100
C24         C  0.26791111  0.51536964  0.76833198    -0.11000
H25         H  0.34181118  0.57325690  0.80686232     0.08600
H26         H  0.33241630  0.44781998  0.81032669     0.06200
H27         H  0.23925678  0.51643888  0.75371061     0.06000
C28         C  0.23130168  0.31125393  0.95277684     0.03100
C29         C  0.20810627  0.34606018  0.95598251    -0.13100
C30         C  0.19856992  0.36208277  0.99308544     0.00600
C31         C  0.21448324  0.34516006  0.02747319    -0.11600
C32         C  0.23669098  0.30971299  0.02585225     0.03100
C33         C  0.24552636  0.29243073  0.98807661    -0.11000
H34         H  0.19533502  0.35942560  0.92943854     0.08600
H35         H  0.20652688  0.35790798  0.05620622     0.06200
H36         H  0.26231995  0.26475025  0.98623218     0.06000
C37         C  0.27246490  0.97858033  0.21670655     0.03100
C38         C  0.29660409  0.97753798  0.18246398    -0.13100
C39         C  0.30705690  0.01225718  0.16269097     0.00600
C40         C  0.29408824  0.04878738  0.17761244    -0.11600
C41         C  0.27677417  0.05227883  0.21561783     0.03100
C42         C  0.26413874  0.01638790  0.23507232    -0.11000
H43         H  0.30745182  0.94913036  0.17125190     0.08600
H44         H  0.30169759  0.07542664  0.16100010     0.06200
H45         H  0.24883002  0.01768691  0.26357906     0.06000
C46         C  0.77981103  0.71450064  0.54169089     0.03100
C47         C  0.76387376  0.73721062  0.50900712    -0.13100
C48         C  0.76748121  0.72227730  0.46924394     0.00600
C49         C  0.78890760  0.68704341  0.46264622    -0.11600
C50         C  0.80632892  0.66646864  0.49361838     0.03100
C51         C  0.79934627  0.67834739  0.53265110    -0.11000
H52         H  0.74943415  0.76572033  0.51399342     0.08600
H53         H  0.79333586  0.67600674  0.43251806     0.06200
H54         H  0.81112918  0.65958792  0.55613723     0.06000
C55         C  0.18475140  0.72456337  0.96408984     0.03100
C56         C  0.20311676  0.74095708  0.99904433    -0.13100
C57         C  0.18416719  0.73719421  0.03733255     0.00600
C58         C  0.14832747  0.71669186  0.03976528    -0.11600
C59         C  0.13190128  0.69893483  0.00689059     0.03100
C60         C  0.14805933  0.70521087  0.96910599    -0.11000
H61         H  0.23141799  0.75609682  0.99659347     0.08600
H62         H  0.13421728  0.71152990  0.06855882     0.06200
H63         H  0.13230550  0.69362477  0.94370658     0.06000
O64         O  0.96833340  0.44455288  0.02943517    -0.73000
O65         O  0.01805929  0.54940000  0.04548523    -0.74000
O66         O  0.93970728  0.52327867  0.04104178    -0.62600
O67         O  0.04623500  0.47166056  0.03435904    -0.71000
O68         O  0.04934621  0.48269868  0.96903090    -0.70600
O69         O  0.93972034  0.53137131  0.97524771    -0.61800
O70         O  0.01719893  0.55965505  0.97994049    -0.74300
O71         O  0.97158156  0.45355049  0.96395467    -0.73100
Cu72       Cu  0.99293285  0.49682607  0.03988743     1.04600
Cu73       Cu  0.99438566  0.50711094  0.96967915     1.04300
C74         C  0.96280833  0.43212015  0.99403568     0.93200
C75         C  0.02518995  0.57107159  0.01509192     0.92300
C76         C  0.92382282  0.53722587  0.00950075     0.84500
C77         C  0.06440835  0.46853426  0.00095136     0.90700
C78         C  0.69750775  0.04765330  0.23816989     0.03100
C79         C  0.66234874  0.04744472  0.21599648    -0.13100
C80         C  0.64812710  0.01241996  0.19947754     0.00600
C81         C  0.66561402  0.97596365  0.20963336    -0.11600
C82         C  0.69936495  0.97389473  0.23397380     0.03100
C83         C  0.71636514  0.01032374  0.24766664    -0.11000
H84         H  0.64797539  0.07549225  0.20821077     0.08600
H85         H  0.65389857  0.94885917  0.19693491     0.06200
H86         H  0.74387545  0.00968692  0.26443338     0.06000
O87         O  0.44811276  0.97582023  0.03784685    -0.73000
O88         O  0.54661431  0.97130063  0.97172828    -0.74000
O89         O  0.52989057  0.97582106  0.05458304    -0.62600
O90         O  0.46468670  0.97173469  0.95584042    -0.71000
O91         O  0.46664105  0.03772264  0.95125912    -0.70600
O92         O  0.53004041  0.04186997  0.05062932    -0.61800
O93         O  0.54807099  0.03750563  0.96902521    -0.74300
O94         O  0.44843853  0.04186185  0.03340241    -0.73100
Cu95       Cu  0.49741638  0.97128493  0.00514286     1.04600
Cu96       Cu  0.49828927  0.04207325  0.00099601     1.04300
C97         C  0.43331427  0.00977252  0.04676745     0.93200
C98         C  0.56207815  0.00350653  0.95914510     0.92300
C99         C  0.53985825  0.00963705  0.06833140     0.84500
C100        C  0.45561625  0.00411119  0.93794954     0.90700
C101        C  0.80801594  0.28042068  0.03562314     0.03100
C102        C  0.78737343  0.26886027  0.00029236    -0.13100
C103        C  0.80715298  0.27140077  0.96241519     0.00600
C104        C  0.84813038  0.27941830  0.96173890    -0.11600
C105        C  0.86612766  0.29685540  0.99436511     0.03100
C106        C  0.84536975  0.29845531  0.03046004    -0.11000
H107        H  0.75692675  0.25867221  0.00180959     0.08600
H108        H  0.86435749  0.27869241  0.93359829     0.06200
H109        H  0.85816156  0.31479988  0.05494808     0.06000
C110        C  0.76040337  0.77894075  0.23623737     0.45400
H111        H  0.78161660  0.79663310  0.21816131    -0.03600
C112        C  0.71067210  0.73679911  0.27696195     0.45400
H113        H  0.68842819  0.71984168  0.29370747    -0.03600
C114        C  0.72080748  0.80166325  0.24560802    -0.17300
C115        C  0.74803617  0.73987436  0.21486725    -0.17100
C116        C  0.77701742  0.76595546  0.27772210    -0.17500
C117        C  0.69239659  0.77699201  0.26238644    -0.17400
C118        C  0.72668323  0.71487966  0.23938434    -0.17000
C119        C  0.74834848  0.74723691  0.30123465    -0.17300
C120        C  0.70338678  0.54433232  0.21634149     0.03100
C121        C  0.66699448  0.54371857  0.19632555    -0.13100
C122        C  0.65045214  0.50859080  0.18334354     0.00600
C123        C  0.66956449  0.47263688  0.19096889    -0.11600
C124        C  0.70857892  0.47123231  0.20608999     0.03100
C125        C  0.72552554  0.50773164  0.22003872    -0.11000
H126        H  0.65103103  0.57137850  0.19037051     0.08600
H127        H  0.65453086  0.44552948  0.18275993     0.06200
H128        H  0.75482826  0.50765433  0.23349636     0.06000
C129        C  0.77498472  0.23499654  0.22926220     0.45400
H130        H  0.79491326  0.21459479  0.21252556    -0.03600
C131        C  0.72996246  0.28474181  0.26783471     0.45400
H132        H  0.70978551  0.30631672  0.28218657    -0.03600
C133        C  0.76817396  0.27452763  0.20651323    -0.17300
C134        C  0.73292071  0.21799353  0.23816894    -0.17100
C135        C  0.79213730  0.24662829  0.27029697    -0.17500
C136        C  0.74757040  0.30273135  0.22879892    -0.17400
C137        C  0.70778840  0.24644655  0.25521734    -0.17000
C138        C  0.76596525  0.26966717  0.29321990    -0.17300
C139        C  0.46393210  0.23352377  0.28756215     0.03100
C140        C  0.50049276  0.24948213  0.27237746    -0.13100
C141        C  0.53773619  0.23124219  0.28255610     0.00600
C142        C  0.53804405  0.19841595  0.30808463    -0.11600
C143        C  0.50279309  0.18372743  0.32411013     0.03100
C144        C  0.46620695  0.20018480  0.31291619    -0.11000
H145        H  0.50021898  0.27586969  0.25387239     0.08600
H146        H  0.56629932  0.18457304  0.31633263     0.06200
H147        H  0.43917326  0.18691019  0.32472203     0.06000
C148        C  0.96896352  0.25708648  0.70341209     0.03100
C149        C  0.00580481  0.26697692  0.72160072    -0.13100
C150        C  0.04232325  0.26011454  0.70048542     0.00600
C151        C  0.04138864  0.24127110  0.66346719    -0.11600
C152        C  0.00537879  0.23002075  0.64656399     0.03100
C153        C  0.96943378  0.24097588  0.66509991    -0.11000
H154        H  0.00612735  0.27857915  0.75165789     0.08600
H155        H  0.06937265  0.23136207  0.65000865     0.06200
H156        H  0.94144363  0.23207861  0.65177848     0.06000
O157        O  0.04814554  0.97689161  0.47128464    -0.73000
O158        O  0.04933331  0.07408243  0.54113560    -0.74000
O159        O  0.04602986  0.99060950  0.55353474    -0.62600
O160        O  0.05300174  0.06037527  0.45908769    -0.71000
O161        O  0.98651668  0.06481825  0.45776952    -0.70600
O162        O  0.97947802  0.99235359  0.55001293    -0.61800
O163        O  0.98282792  0.07515624  0.53970882    -0.74300
O164        O  0.98191872  0.98305373  0.46853239    -0.73100
Cu165      Cu  0.05164293  0.02545295  0.50643830     1.04600
Cu166      Cu  0.98044088  0.02910503  0.50406150     1.04300
C167        C  0.01420186  0.96484912  0.45913296     0.93200
C168        C  0.01571509  0.08973313  0.55118790     0.92300
C169        C  0.01177110  0.97872949  0.56493911     0.84500
C170        C  0.02084065  0.07410760  0.44405659     0.90700
C171        C  0.21413851  0.28586356  0.52793351     0.03100
C172        C  0.18163620  0.31227265  0.52983203    -0.13100
C173        C  0.16507354  0.32786526  0.49538386     0.00600
C174        C  0.17870384  0.31552141  0.45825081    -0.11600
C175        C  0.21120723  0.28944246  0.45451542     0.03100
C176        C  0.22947310  0.27406754  0.48979101    -0.11000
H177        H  0.17018442  0.32224697  0.55853861     0.08600
H178        H  0.16515260  0.32817374  0.43171799     0.06200
H179        H  0.25529408  0.25443778  0.48765045     0.06000
C180        C  0.29583598  0.97734990  0.76687840     0.03100
C181        C  0.28060456  0.01559349  0.75603638    -0.13100
C182        C  0.29882923  0.05044589  0.77138111     0.00600
C183        C  0.33090505  0.04616599  0.79770949    -0.11600
C184        C  0.34496898  0.00865217  0.80902707     0.03100
C185        C  0.32856340  0.97471797  0.79240359    -0.11000
H186        H  0.25471066  0.01815139  0.73700955     0.08600
H187        H  0.34410618  0.07238690  0.81076096     0.06200
H188        H  0.33996750  0.94568513  0.80129927     0.06000
C189        C  0.27802263  0.28400258  0.71737028     0.45400
H190        H  0.29769325  0.30133467  0.69745561    -0.03600
C191        C  0.23344787  0.24274891  0.76485819     0.45400
H192        H  0.21449972  0.22558083  0.78543452    -0.03600
C193        C  0.23878174  0.27035821  0.69767150    -0.17300
C194        C  0.29854755  0.24498527  0.73179171    -0.17100
C195        C  0.26450595  0.30734823  0.75534599    -0.17500
C196        C  0.21301567  0.25241474  0.72462197    -0.17400
C197        C  0.27339058  0.22147598  0.75428087    -0.17000
C198        C  0.24531922  0.28317509  0.78256092    -0.17300
C199        C  0.54361350  0.21230020  0.71763986     0.03100
C200        C  0.54485345  0.18046439  0.69119541    -0.13100
C201        C  0.51026804  0.16617881  0.67452954     0.00600
C202        C  0.47305896  0.18059351  0.68681314    -0.11600
C203        C  0.46978180  0.21208860  0.71390779     0.03100
C204        C  0.50566354  0.22850900  0.72961421    -0.11000
H205        H  0.57351649  0.16846786  0.68114291     0.08600
H206        H  0.44639408  0.16826843  0.67363935     0.06200
H207        H  0.50413589  0.25379029  0.74950886     0.06000
C208        C  0.73136278  0.27241419  0.73022182     0.45400
H209        H  0.71108586  0.29178032  0.71257291    -0.03600
C210        C  0.77930013  0.22870892  0.77220781     0.45400
H211        H  0.80039783  0.21049326  0.79008355    -0.03600
C212        C  0.77179214  0.26342823  0.70892052    -0.17300
C213        C  0.74096891  0.29100735  0.77120828    -0.17100
C214        C  0.71361882  0.23145070  0.74049606    -0.17500
C215        C  0.79908484  0.24543135  0.73383013    -0.17400
C216        C  0.76411555  0.26595247  0.79477296    -0.17000
C217        C  0.74096995  0.20609404  0.75896111    -0.17300
C218        C  0.71768001  0.53427165  0.80701090     0.03100
C219        C  0.69082864  0.53693089  0.83887951    -0.13100
C220        C  0.67152106  0.50338497  0.85322535     0.00600
C221        C  0.67793523  0.46687719  0.83464290    -0.11600
C222        C  0.70922712  0.46084690  0.80683934     0.03100
C223        C  0.72921230  0.49581226  0.79256501    -0.11000
H224        H  0.68407597  0.56577265  0.85194762     0.08600
H225        H  0.65840351  0.44278737  0.84309106     0.06200
H226        H  0.75352055  0.49383176  0.77135417     0.06000
C227        C  0.77714892  0.76883246  0.77975670     0.45400
H228        H  0.79686365  0.78818603  0.79730229    -0.03600
C229        C  0.73277652  0.72384008  0.73692255     0.45400
H230        H  0.71461523  0.70471146  0.71765154    -0.03600
C231        C  0.73783822  0.78996020  0.76702030    -0.17300
C232        C  0.79781588  0.75614302  0.74006820    -0.17100
C233        C  0.76359163  0.73014862  0.80187855    -0.17500
C234        C  0.71164546  0.76402904  0.74869589    -0.17400
C235        C  0.77225773  0.73517923  0.71568838    -0.17000
C236        C  0.74552261  0.70339578  0.77651651    -0.17300
C237        C  0.54105846  0.79290590  0.72378864     0.03100
C238        C  0.50306424  0.77905494  0.73755744    -0.13100
C239        C  0.46709333  0.79598170  0.72169896     0.00600
C240        C  0.46997826  0.82650430  0.69353105    -0.11600
C241        C  0.50699589  0.83984715  0.68031936     0.03100
C242        C  0.54210027  0.82330208  0.69526930    -0.11000
H243        H  0.50154417  0.75533623  0.75936740     0.08600
H244        H  0.44298385  0.83955292  0.68105137     0.06200
H245        H  0.57063709  0.83380568  0.68402911     0.06000
C246        C  0.22597562  0.78865928  0.77353966     0.45400
H247        H  0.20584166  0.80751046  0.79187658    -0.03600
C248        C  0.27215654  0.74230876  0.73232758     0.45400
H249        H  0.29249464  0.72176465  0.71688505    -0.03600
C250        C  0.20718569  0.77571016  0.73347108    -0.17300
C251        C  0.26639384  0.80853056  0.76127667    -0.17100
C252        C  0.23602653  0.74936177  0.79601449    -0.17500
C253        C  0.23371423  0.75488274  0.70884446    -0.17400
C254        C  0.29330989  0.78142396  0.74457368    -0.17000
C255        C  0.25726802  0.72311125  0.77182234    -0.17300
C256        C  0.94655876  0.79077616  0.31404278     0.03100
C257        C  0.94932992  0.81736456  0.34621556    -0.13100
C258        C  0.98665704  0.82967238  0.36000569     0.00600
C259        C  0.02140241  0.81369571  0.34339728    -0.11600
C260        C  0.02044178  0.78874999  0.31032165     0.03100
C261        C  0.98263267  0.77665357  0.29548113    -0.11000
H262        H  0.92229730  0.82981020  0.35951304     0.08600
H263        H  0.05009518  0.82377349  0.35417352     0.06200
H264        H  0.98126223  0.75784626  0.26939940     0.06000
C265        C  0.25371637  0.74091725  0.26770577     0.45400
H266        H  0.27367085  0.71983908  0.28347947    -0.03600
C267        C  0.20671665  0.78984340  0.23071924     0.45400
H268        H  0.18652252  0.81066468  0.21524306    -0.03600
C269        C  0.21614833  0.75323554  0.29270491    -0.17300
C270        C  0.27456097  0.78034469  0.25528898    -0.17100
C271        C  0.23737213  0.72358303  0.22833213    -0.17500
C272        C  0.18955981  0.77617351  0.27121601    -0.17400
C273        C  0.24787345  0.80832285  0.24019372    -0.17000
C274        C  0.21531930  0.75112649  0.20684954    -0.17300
C275        C  0.23647583  0.55470512  0.18921097     0.03100
C276        C  0.23310175  0.51722294  0.20914217    -0.13100
C277        C  0.24248044  0.48121348  0.18824205     0.00600
C278        C  0.25654926  0.48366106  0.14902153    -0.11600
C279        C  0.26304096  0.52038698  0.13099308     0.03100
C280        C  0.24961934  0.55517047  0.14955554    -0.11000
H281        H  0.22474837  0.51617913  0.24035040     0.08600
H282        H  0.26782463  0.45690266  0.13449939     0.06200
H283        H  0.25578947  0.58350059  0.13528469     0.06000
C284        C  0.19595612  0.74162212  0.53860950     0.03100
C285        C  0.21186448  0.75328458  0.50066467    -0.13100
C286        C  0.19475809  0.73830365  0.46486487     0.00600
C287        C  0.16248541  0.71243372  0.46794628    -0.11600
C288        C  0.14719749  0.70063521  0.50476355     0.03100
C289        C  0.16372581  0.71527925  0.53978337    -0.11000
H290        H  0.23750044  0.77261653  0.49907984     0.08600
H291        H  0.15001023  0.69986416  0.44106967     0.06200
H292        H  0.15226479  0.70498166  0.56828962     0.06000
C293        C  0.96439944  0.79269895  0.69504960     0.03100
C294        C  0.99997205  0.77354850  0.70975890    -0.13100
C295        C  0.03841307  0.78785953  0.69809626     0.00600
C296        C  0.04056238  0.81901135  0.67062732    -0.11600
C297        C  0.00639153  0.83930757  0.65925755     0.03100
C298        C  0.96902420  0.82736289  0.67243735    -0.11000
H299        H  0.99795740  0.74887073  0.73040406     0.08600
H300        H  0.06944638  0.82985781  0.66063636     0.06200
H301        H  0.94338017  0.84590451  0.66519491     0.06000
C302        C  0.71969680  0.96191634  0.78953579     0.03100
C303        C  0.69004858  0.96445815  0.81900096    -0.13100
C304        C  0.67712677  0.00093628  0.83382565     0.00600
C305        C  0.69244710  0.03609618  0.81872970    -0.11600
C306        C  0.72150490  0.03574464  0.78851543     0.03100
C307        C  0.73533202  0.99811022  0.77328544    -0.11000
H308        H  0.67749732  0.93746816  0.83149892     0.08600
H309        H  0.68154809  0.06419129  0.83076072     0.06200
H310        H  0.75829177  0.99702083  0.75037264     0.06000
C311        C  0.03846773  0.23684524  0.27513568     0.03100
C312        C  0.04312237  0.20764667  0.30435805    -0.13100
C313        C  0.01028914  0.19122743  0.32328027     0.00600
C314        C  0.97203929  0.20517886  0.31520365    -0.11600
C315        C  0.96533771  0.23335974  0.28537138     0.03100
C316        C  0.99900815  0.25006976  0.26504658    -0.11000
H317        H  0.07284754  0.19675018  0.31182786     0.08600
H318        H  0.94687431  0.19266019  0.33138153     0.06200
H319        H  0.99461846  0.27181854  0.24161140     0.06000
C320        C  0.27071600  0.29315725  0.26294832     0.45400
H321        H  0.28779253  0.31413201  0.28150986    -0.03600
C322        C  0.23322345  0.24431467  0.21773395     0.45400
H323        H  0.21774148  0.22314801  0.19820466    -0.03600
C324        C  0.26000432  0.31105713  0.22144264    -0.17300
C325        C  0.29434602  0.25388608  0.25530423    -0.17100
C326        C  0.23071946  0.27941817  0.28171494    -0.17500
C327        C  0.24592224  0.28272031  0.19564977    -0.17400
C328        C  0.27266006  0.22585450  0.23408706    -0.17000
C329        C  0.20795466  0.25848640  0.25482247    -0.17300
C330        C  0.76477499  0.70878219  0.04583717     0.03100
C331        C  0.78532020  0.67235518  0.04612982    -0.13100
C332        C  0.79823975  0.65432245  0.01077699     0.00600
C333        C  0.78865793  0.67198354  0.97436012    -0.11600
C334        C  0.76611362  0.70729187  0.97272331     0.03100
C335        C  0.75433629  0.72633675  0.00878079    -0.11000
H336        H  0.79316897  0.65887961  0.07446743     0.08600
H337        H  0.80032047  0.65919667  0.94692814     0.06200
H338        H  0.73830977  0.75450331  0.00800416     0.06000
O339        O  0.45273996  0.47840859  0.95901148    -0.73000
O340        O  0.50802982  0.47781789  0.06301333    -0.74000
O341        O  0.42678146  0.47902232  0.03848015    -0.62600
O342        O  0.53270142  0.47823437  0.98216367    -0.71000
O343        O  0.53119311  0.54432759  0.98196400    -0.70600
O344        O  0.42805904  0.54524557  0.03869953    -0.61800
O345        O  0.50800026  0.54403577  0.06165261    -0.74300
O346        O  0.45141984  0.54472820  0.95937772    -0.73100
Cu347      Cu  0.48006256  0.47587061  0.01091585     1.04600
Cu348      Cu  0.47966361  0.54681401  0.01063406     1.04300
C349        C  0.44304447  0.51161175  0.94329333     0.93200
C350        C  0.51844671  0.51109657  0.07756439     0.92300
C351        C  0.41078270  0.51268484  0.04689857     0.84500
C352        C  0.54739050  0.51154864  0.97136779     0.90700
O353        O  0.46683425  0.96330693  0.45706698    -0.73000
O354        O  0.48171984  0.04921084  0.53484084    -0.74000
O355        O  0.47411561  0.04529563  0.45199752    -0.62600
O356        O  0.47428084  0.96691595  0.54095586    -0.71000
O357        O  0.53987826  0.95776377  0.53276983    -0.70600
O358        O  0.54057956  0.04158977  0.44870697    -0.61800
O359        O  0.54783596  0.04039880  0.53195901    -0.74300
O360        O  0.53287323  0.95903712  0.44900383    -0.73100
Cu361      Cu  0.47189609  0.00629360  0.49649935     1.04600
Cu362      Cu  0.54269876  0.99928985  0.49040680     1.04300
C363        C  0.49759661  0.94959979  0.43885951     0.93200
C364        C  0.51683630  0.05769820  0.54625539     0.92300
C365        C  0.50732352  0.05615579  0.43680909     0.84500
C366        C  0.50712732  0.95010134  0.55085688     0.90700
O367        O  0.03438063  0.55366009  0.45895252    -0.73000
O368        O  0.95915970  0.46175356  0.45275816    -0.74000
O369        O  0.95118467  0.54466424  0.45282524    -0.62600
O370        O  0.04187800  0.46906699  0.45728780    -0.71000
O371        O  0.03889763  0.46899314  0.52364773    -0.70600
O372        O  0.94566675  0.54203581  0.51892301    -0.61800
O373        O  0.95708656  0.45977898  0.51903023    -0.74300
O374        O  0.02889471  0.55197193  0.52503515    -0.73100
Cu375      Cu  0.99700643  0.50751571  0.45300967     1.04600
Cu376      Cu  0.99256761  0.50589507  0.52395306     1.04300
C377        C  0.04313236  0.56731008  0.49330100     0.93200
C378        C  0.94694214  0.44607677  0.48531813     0.92300
C379        C  0.93323200  0.55405234  0.48509442     0.84500
C380        C  0.05330320  0.45578709  0.49093626     0.90700
C381        C  0.09544196  0.28383082  0.27273452    -0.09200
C382        C  0.07692246  0.25023440  0.25690819     0.07000
C383        C  0.10130539  0.22207009  0.23677962    -0.03000
C384        C  0.14311197  0.22549720  0.23645125    -0.07400
C385        C  0.16241219  0.25735121  0.25526711     0.06100
C386        C  0.13735222  0.28819549  0.27132251    -0.02500
Br387      Br  0.15661783  0.33834225  0.29015287    -0.02200
H388        H  0.07735945  0.30579296  0.28844922     0.10000
H389        H  0.16031603  0.20184560  0.22262087     0.08000
Br390      Br  0.07870385  0.17553239  0.21323373    -0.02600
C391        C  0.12857588  0.63226958  0.52375849    -0.09200
C392        C  0.11773004  0.66849000  0.50580514     0.07000
C393        C  0.08166924  0.67144884  0.48448697    -0.03000
C394        C  0.05808254  0.63779776  0.47975558    -0.07400
C395        C  0.06951872  0.60142970  0.49691494     0.06100
C396        C  0.10461602  0.59886626  0.51967109    -0.02500
Br397      Br  0.12230366  0.54984005  0.54357566    -0.02200
H398        H  0.15654288  0.62956884  0.53969527     0.10000
H399        H  0.03039381  0.64017260  0.46330790     0.08000
Br400      Br  0.06295246  0.72102747  0.46249642    -0.02600
C401        C  0.21297526  0.41383724  0.19540006    -0.09200
C402        C  0.24329936  0.44020200  0.20597969     0.07000
C403        C  0.27884404  0.42378573  0.22195306    -0.03000
C404        C  0.28311382  0.38230753  0.22772637    -0.07400
C405        C  0.25342866  0.35558207  0.21555646     0.06100
C406        C  0.21752240  0.37234308  0.19975509    -0.02500
Br407      Br  0.17246054  0.34155850  0.18347010    -0.02200
H408        H  0.18614972  0.42559047  0.18153995     0.10000
H409        H  0.31084645  0.37072056  0.23981780     0.08000
Br410      Br  0.32409080  0.45666436  0.23219688    -0.02600
C411        C  0.33250293  0.53896578  0.12209235    -0.09200
C412        C  0.29812142  0.52304916  0.10485177     0.07000
C413        C  0.30081905  0.50356200  0.06787214    -0.03000
C414        C  0.33814929  0.49970373  0.04904763    -0.07400
C415        C  0.37242107  0.51485599  0.06719164     0.06100
C416        C  0.36947782  0.53478160  0.10373168    -0.02500
Br417      Br  0.41556353  0.55373048  0.13149059    -0.02200
H418        H  0.33098105  0.55266330  0.15129812     0.10000
H419        H  0.34046316  0.48508329  0.02035703     0.08000
Br420      Br  0.25462547  0.48200653  0.04260496    -0.02600
C421        C  0.20330249  0.78323592  0.36074362    -0.09200
C422        C  0.21381939  0.74950646  0.33763069     0.07000
C423        C  0.22328293  0.71392459  0.35811074    -0.03000
C424        C  0.22169375  0.71256313  0.40005499    -0.07400
C425        C  0.20957774  0.74576321  0.42308576     0.06100
C426        C  0.20057743  0.78144281  0.40270495    -0.02500
Br427      Br  0.18081010  0.82740704  0.43065317    -0.02200
H428        H  0.19629571  0.81113842  0.34601527     0.10000
H429        H  0.22692817  0.68428091  0.41479668     0.08000
Br430      Br  0.23307586  0.66468443  0.33069704    -0.02600
C431        C  0.27105405  0.61437216  0.21537479    -0.09200
C432        C  0.23463534  0.59478251  0.20888426     0.07000
C433        C  0.19923270  0.61804870  0.20912981    -0.03000
C434        C  0.20073813  0.65961084  0.21507980    -0.07400
C435        C  0.23738846  0.67932387  0.22029252     0.06100
C436        C  0.27270058  0.65586779  0.22082271    -0.05700
Br437      Br  0.32454480  0.67926596  0.22413970    -0.02200
H438        H  0.29884567  0.59754267  0.21333562     0.10000
H439        H  0.17305529  0.67670301  0.21532243     0.08000
Br440      Br  0.14842939  0.59438186  0.19917322    -0.02600
C441        C  0.08183334  0.81552005  0.27899860    -0.09200
C442        C  0.06040111  0.78157185  0.29096965     0.07000
C443        C  0.08206651  0.74580206  0.29661432    -0.03000
C444        C  0.12391121  0.74460938  0.29053602    -0.07400
C445        C  0.14542947  0.77917571  0.28039636     0.06100
C446        C  0.12363624  0.81493999  0.27508071    -0.02500
Br447      Br  0.14941155  0.86518094  0.26805217    -0.02200
H448        H  0.06617891  0.84384012  0.27654050     0.10000
H449        H  0.13979058  0.71658946  0.29430639     0.08000
Br450      Br  0.05611856  0.69885767  0.31571841    -0.02600
C451        C  0.14245666  0.74374697  0.71188117    -0.09200
C452        C  0.16235250  0.77713286  0.72751680     0.07000
C453        C  0.13860678  0.81033294  0.73891541    -0.03000
C454        C  0.09692882  0.80923332  0.73587846    -0.07400
C455        C  0.07743773  0.77755651  0.71718516     0.06100
C456        C  0.10075016  0.74433701  0.70544418    -0.02500
Br457      Br  0.07744327  0.70091097  0.67741845    -0.02200
H458        H  0.15959553  0.71759793  0.70315299     0.10000
H459        H  0.07988610  0.83592026  0.74322650     0.08000
Br460      Br  0.16033011  0.86139966  0.75060572    -0.02600
C461        C  0.20506946  0.78254002  0.64401567    -0.09200
C462        C  0.22878130  0.75289706  0.66315158     0.07000
C463        C  0.24727125  0.72406825  0.63737208    -0.03000
C464        C  0.23973530  0.72427134  0.59601561    -0.07400
C465        C  0.21363836  0.75186925  0.57826972     0.06100
C466        C  0.19649694  0.78143805  0.60291121    -0.02500
Br467      Br  0.15874204  0.81937791  0.58208264    -0.02200
H468        H  0.19201038  0.80667316  0.66115034     0.10000
H469        H  0.25223237  0.70057575  0.57773669     0.08000
Br470      Br  0.28040708  0.68032272  0.65394910    -0.02600
C471        C  0.40611359  0.80426270  0.76416518    -0.09200
C472        C  0.42527624  0.78431106  0.73270052     0.07000
C473        C  0.40097054  0.76463326  0.70501047    -0.03000
C474        C  0.35897711  0.76504361  0.70916864    -0.07400
C475        C  0.33901724  0.78532143  0.74061458     0.06100
C476        C  0.36406553  0.80537327  0.76826344    -0.02500
Br477      Br  0.34560088  0.83700426  0.81186949    -0.02200
H478        H  0.42408789  0.82140976  0.78448806     0.10000
H479        H  0.34194245  0.75069952  0.68616946     0.08000
Br480      Br  0.42393675  0.73910394  0.65900355    -0.02600
C481        C  0.49784219  0.93539370  0.62229136    -0.09200
C482        C  0.50739802  0.92188194  0.58382688     0.07000
C483        C  0.51793788  0.88181994  0.57751137    -0.03000
C484        C  0.51836487  0.85553332  0.60963786    -0.07400
C485        C  0.50875700  0.86896308  0.64804325     0.06100
C486        C  0.49896864  0.90919977  0.65458856    -0.02500
Br487      Br  0.48841806  0.92949933  0.70712421    -0.02200
H488        H  0.49014078  0.96641002  0.62723749     0.10000
H489        H  0.52556415  0.82440640  0.60462096     0.08000
Br490      Br  0.52983927  0.86147395  0.52530626    -0.02600
C491        C  0.64649472  0.75215510  0.71277211    -0.09200
C492        C  0.66642488  0.76947690  0.74521971     0.07000
C493        C  0.64181218  0.78765654  0.77513387    -0.03000
C494        C  0.60010073  0.79199039  0.76965061    -0.07400
C495        C  0.58111377  0.77668458  0.73592521     0.06100
C496        C  0.60485244  0.75543862  0.70812756    -0.02500
Br497      Br  0.58153662  0.73186626  0.66190416    -0.02200
H498        H  0.66310882  0.73625252  0.68999814     0.10000
H499        H  0.58248844  0.80846719  0.79143656     0.08000
Br500      Br  0.66144064  0.80428154  0.82592525    -0.02600
C501        C  0.78854635  0.74813845  0.87053860    -0.09200
C502        C  0.75945182  0.72929947  0.84712773     0.07000
C503        C  0.72651439  0.71214251  0.86796724    -0.03000
C504        C  0.72717966  0.70846721  0.90975967    -0.07400
C505        C  0.75872623  0.72360825  0.93218490     0.06100
C506        C  0.78870129  0.74496040  0.91221603    -0.02500
Br507      Br  0.83238437  0.76761011  0.94070690    -0.02200
H508        H  0.81237872  0.76460509  0.85683181     0.10000
H509        H  0.70346097  0.69248420  0.92480621     0.08000
Br510      Br  0.67761692  0.69647816  0.84311973    -0.02600
C511        C  0.74797812  0.85334934  0.80524087    -0.09200
C512        C  0.73390452  0.83497628  0.77049058     0.07000
C513        C  0.72137399  0.86041836  0.73891759    -0.03000
C514        C  0.72031850  0.90226565  0.74384669    -0.07400
C515        C  0.73292980  0.92018633  0.77933091     0.06100
C516        C  0.74780302  0.89489668  0.80971796    -0.02500
Br517      Br  0.76637465  0.91577404  0.85939867    -0.02200
H518        H  0.75837954  0.83520422  0.82985121     0.10000
H519        H  0.70824094  0.92081205  0.72030087     0.08000
Br520      Br  0.70737302  0.84075913  0.68746713    -0.02600
C521        C  0.84976759  0.78357560  0.69226274    -0.09200
C522        C  0.84061072  0.76740234  0.72977883     0.07000
C523        C  0.87340030  0.75902843  0.75538132    -0.03000
C524        C  0.91298231  0.76689215  0.74362723    -0.07400
C525        C  0.92210201  0.78091004  0.70542489     0.06100
C526        C  0.88950364  0.78734245  0.67894036    -0.02500
Br527      Br  0.89622313  0.79585973  0.62256680    -0.02200
H528        H  0.82589768  0.79110759  0.67194014     0.10000
H529        H  0.93685023  0.76168569  0.76468272     0.08000
Br530      Br  0.86849754  0.73413208  0.80595031    -0.02600
C531        C  0.76315054  0.59260597  0.80869680    -0.09200
C532        C  0.73117107  0.57339803  0.79061535     0.07000
C533        C  0.70479756  0.59676801  0.76749786    -0.03000
C534        C  0.70978362  0.63820004  0.76401551    -0.07400
C535        C  0.74137419  0.65830417  0.78286776     0.06100
C536        C  0.76885701  0.63396180  0.80474901    -0.02500
Br537      Br  0.81559547  0.65284114  0.83043356    -0.02200
H538        H  0.78294863  0.57544791  0.82772051     0.10000
H539        H  0.68731721  0.65472726  0.74773980     0.08000
Br540      Br  0.65937019  0.57344977  0.74241327    -0.02600
C541        C  0.61259290  0.53660269  0.88333380    -0.09200
C542        C  0.64221953  0.50700396  0.88598938     0.07000
C543        C  0.64260421  0.48102991  0.91913587    -0.03000
C544        C  0.61188290  0.48343938  0.94744747    -0.07400
C545        C  0.58159714  0.51235613  0.94398851     0.06100
C546        C  0.58266407  0.53982948  0.91209876    -0.02500
Br547      Br  0.54255833  0.58041417  0.90354041    -0.02200
H548        H  0.61196872  0.55664018  0.85799369     0.10000
H549        H  0.61163908  0.46272169  0.97224042     0.08000
Br550      Br  0.68494186  0.44305599  0.92836912    -0.02600
C551        C  0.75431540  0.14289140  0.79789654    -0.09200
C552        C  0.73768617  0.16110653  0.76386536     0.07000
C553        C  0.72233694  0.13527955  0.73419422    -0.03000
C554        C  0.72075524  0.09368475  0.74073780    -0.07400
C555        C  0.73560691  0.07617662  0.77576743     0.06100
C556        C  0.75353313  0.10149567  0.80386209    -0.02500
Br557      Br  0.77562796  0.08089350  0.85245991    -0.02200
H558        H  0.76748823  0.16081972  0.82085639     0.10000
H559        H  0.70646668  0.07504844  0.71888262     0.08000
Br560      Br  0.70533808  0.15359215  0.68284005    -0.02600
C561        C  0.73972392  0.36324277  0.75137753    -0.09200
C562        C  0.73045961  0.33390938  0.77999461     0.07000
C563        C  0.71289436  0.34671832  0.81589772    -0.03000
C564        C  0.71038388  0.38742589  0.82463333    -0.07400
C565        C  0.71944153  0.41760741  0.79620946     0.06100
C566        C  0.73400723  0.40429152  0.75861944    -0.02500
Br567      Br  0.74485233  0.43885549  0.71439904    -0.02200
H568        H  0.75117540  0.35417285  0.72261450     0.10000
H569        H  0.69983148  0.39497874  0.85415715     0.08000
Br570      Br  0.68568073  0.31099970  0.85132928    -0.02600
C571        C  0.50329121  0.12441879  0.57151373    -0.09200
C572        C  0.52082899  0.08693533  0.57726947     0.07000
C573        C  0.53723551  0.07632439  0.61423409    -0.03000
C574        C  0.53316253  0.10245933  0.64605325    -0.07400
C575        C  0.51379672  0.13924119  0.64083936     0.06100
C576        C  0.50055565  0.15111538  0.60289394    -0.02500
Br577      Br  0.48058353  0.20382987  0.59193111    -0.02200
H578        H  0.49150440  0.13273688  0.54263262     0.10000
H579        H  0.54462643  0.09396798  0.67500093     0.08000
Br580      Br  0.56297265  0.02578313  0.62335386    -0.02600
C581        C  0.60163264  0.21482679  0.76382199    -0.09200
C582        C  0.58383555  0.22760897  0.72822172     0.07000
C583        C  0.60913428  0.24165776  0.69740684    -0.03000
C584        C  0.65078852  0.24056904  0.70160079    -0.07400
C585        C  0.66900746  0.22640424  0.73659264     0.06100
C586        C  0.64354136  0.21475633  0.76851900    -0.02500
Br587      Br  0.66316686  0.19980002  0.81986194    -0.02200
H588        H  0.58293552  0.20299577  0.78745410     0.10000
H589        H  0.66918611  0.25042942  0.67682943     0.08000
Br590      Br  0.58810821  0.25932684  0.64718449    -0.02600
C591        C  0.40502025  0.23854418  0.68801379    -0.09200
C592        C  0.42806047  0.22754012  0.72134755     0.07000
C593        C  0.40784981  0.22162041  0.75788032    -0.03000
C594        C  0.36596087  0.22697585  0.76053163    -0.07400
C595        C  0.34289814  0.23724217  0.72690171     0.06100
C596        C  0.36319716  0.24249233  0.69023533    -0.02500
Br597      Br  0.33561136  0.24918471  0.64085441    -0.02200
H598        H  0.41952948  0.24133012  0.65915876     0.10000
H599        H  0.35124886  0.22264172  0.78906740     0.08000
Br600      Br  0.43574891  0.20299789  0.80404696    -0.02600
C601        C  0.24975935  0.87814101  0.78609738    -0.09200
C602        C  0.26933186  0.85369807  0.75766869     0.07000
C603        C  0.28843594  0.87357811  0.72529265    -0.03000
C604        C  0.29367226  0.91517100  0.72623242    -0.07400
C605        C  0.27719414  0.93856897  0.75698316     0.06100
C606        C  0.25307090  0.91968890  0.78565449    -0.02500
Br607      Br  0.22555145  0.94961301  0.82627566    -0.02200
H608        H  0.23142579  0.86540503  0.80919466     0.10000
H609        H  0.31167202  0.92922627  0.70332271     0.08000
Br610      Br  0.30410541  0.84754836  0.67668331    -0.02600
C611        C  0.29043608  0.15399165  0.72557614    -0.09200
C612        C  0.27869482  0.17706779  0.75888948     0.07000
C613        C  0.26907516  0.15680426  0.79459423    -0.03000
C614        C  0.27172689  0.11509201  0.79649131    -0.07400
C615        C  0.28478728  0.09219862  0.76369768     0.06100
C616        C  0.29399040  0.11221775  0.72789583    -0.02500
Br617      Br  0.31449787  0.08399853  0.68240622    -0.02200
H618        H  0.29726373  0.16854936  0.69754633     0.10000
H619        H  0.26605622  0.10046150  0.82475702     0.08000
Br620      Br  0.25677333  0.18411792  0.84336940    -0.02600
C621        C  0.21013305  0.24940393  0.39201914    -0.09200
C622        C  0.22475328  0.28234354  0.41255743     0.07000
C623        C  0.23992265  0.31427077  0.38983723    -0.03000
C624        C  0.23944665  0.31330215  0.34796601    -0.07400
C625        C  0.22479903  0.28035617  0.32682227     0.06100
C626        C  0.21042239  0.24776868  0.35001542    -0.02500
Br627      Br  0.19168739  0.19898479  0.32822352    -0.02200
H628        H  0.19687343  0.22528746  0.40884756     0.10000
H629        H  0.25044532  0.33894868  0.33190364     0.08000
Br630      Br  0.25992666  0.36105566  0.41521029    -0.02600
C631        C  0.21487011  0.24285253  0.58854865    -0.09200
C632        C  0.23114228  0.27503429  0.56750410     0.07000
C633        C  0.25107187  0.30436967  0.58944725    -0.03000
C634        C  0.25052423  0.30375491  0.63130051    -0.07400
C635        C  0.23350135  0.27204308  0.65286529     0.06100
C636        C  0.21737582  0.24022416  0.63039212    -0.02500
Br637      Br  0.20087209  0.19083330  0.65363034    -0.02200
H638        H  0.19910754  0.22008216  0.57238114     0.10000
H639        H  0.26415472  0.32820028  0.64685932     0.08000
Br640      Br  0.27929639  0.34621066  0.56292908    -0.02600
C641        C  0.09854985  0.35432263  0.47957982    -0.09200
C642        C  0.13562556  0.35995497  0.49749846     0.07000
C643        C  0.14570847  0.39745637  0.51289190    -0.03000
C644        C  0.11819310  0.42861631  0.51082632    -0.07400
C645        C  0.08161365  0.42312173  0.49212052     0.06100
C646        C  0.07163723  0.38584434  0.47629098    -0.02500
Br647      Br  0.02190565  0.37616333  0.45014982    -0.02200
H648        H  0.09105522  0.32560302  0.46722890     0.10000
H649        H  0.12578837  0.45748288  0.52270365     0.08000
Br650      Br  0.19753414  0.40901182  0.53353419    -0.02600
C651        C  0.00011882  0.90842927  0.57260408    -0.09200
C652        C  0.00973663  0.94448786  0.59070539     0.07000
C653        C  0.02040968  0.94584026  0.63094914    -0.03000
C654        C  0.01972513  0.91083589  0.65323963    -0.07400
C655        C  0.00963456  0.87484462  0.63504231     0.06100
C656        C  0.00085494  0.87338726  0.59435830    -0.02500
Br657      Br  0.99161701  0.82419203  0.56714922    -0.02200
H658        H  0.99307558  0.90744829  0.54114645     0.10000
H659        H  0.02676921  0.91161045  0.68468686     0.08000
Br660      Br  0.03496678  0.99457748  0.65629244    -0.02600
C661        C  0.04123122  0.16547786  0.38419625    -0.09200
C662        C  0.01604734  0.15910728  0.35182206     0.07000
C663        C  0.99617397  0.12267375  0.34767372    -0.03000
C664        C  0.99912057  0.09448216  0.37779350    -0.07400
C665        C  0.02287286  0.10167179  0.41103088     0.06100
C666        C  0.04520340  0.13673721  0.41363959    -0.02500
Br667      Br  0.07909761  0.14841957  0.45777414    -0.02200
H668        H  0.05692368  0.19335236  0.38711362     0.10000
H669        H  0.98267549  0.06698443  0.37545463     0.08000
Br670      Br  0.96584829  0.10942179  0.30125537    -0.02600
C671        C  0.98527217  0.93408097  0.40062450    -0.09200
C672        C  0.01062557  0.93019251  0.43334197     0.07000
C673        C  0.02739342  0.89280968  0.44275386    -0.03000
C674        C  0.01689180  0.85960452  0.42023218    -0.07400
C675        C  0.99106887  0.86349759  0.38745144     0.06100
C676        C  0.97625972  0.90152850  0.37715550    -0.02500
Br677      Br  0.94752688  0.91252437  0.32924382    -0.02200
H678        H  0.97292225  0.96301876  0.39281271     0.10000
H679        H  0.02985038  0.83081587  0.42752763     0.08000
Br680      Br  0.06416489  0.88544893  0.48581939    -0.02600
C681        C  0.10036100  0.23148760  0.73592084    -0.09200
C682        C  0.08306152  0.26478253  0.71720353     0.07000
C683        C  0.10868887  0.29423382  0.70186797    -0.03000
C684        C  0.15039858  0.28981557  0.70489175    -0.07400
C685        C  0.16799508  0.25537799  0.72169737     0.06100
C686        C  0.14207248  0.22614681  0.73767188    -0.02500
Br687      Br  0.16058014  0.17524087  0.75656255    -0.02200
H688        H  0.08124401  0.20746723  0.74567914     0.10000
H689        H  0.16915875  0.31322675  0.69318633     0.08000
Br690      Br  0.08796124  0.33930228  0.67318803    -0.02600
C691        C  0.90349821  0.29044289  0.71479783    -0.09200
C692        C  0.92894668  0.25828976  0.72327075     0.07000
C693        C  0.91173243  0.22293626  0.73798754    -0.03000
C694        C  0.86989733  0.21956400  0.74169999    -0.07400
C695        C  0.84395942  0.25085678  0.73038429     0.06100
C696        C  0.86178097  0.28737588  0.71858875    -0.02500
Br697      Br  0.83242240  0.33538268  0.70793605    -0.02200
H698        H  0.91611412  0.31759184  0.70288766     0.10000
H699        H  0.85761496  0.19159016  0.75179110     0.08000
Br700      Br  0.94438470  0.17727192  0.75012722    -0.02600
C701        C  0.98328017  0.16305841  0.62896953    -0.09200
C702        C  0.00562920  0.19664700  0.61827459     0.07000
C703        C  0.03184458  0.19461263  0.58518810    -0.03000
C704        C  0.03634931  0.15872287  0.56465686    -0.07400
C705        C  0.01393919  0.12540867  0.57569386     0.06100
C706        C  0.98687552  0.12787461  0.60781997    -0.02500
Br707      Br  0.95586589  0.08345405  0.62597828    -0.02200
H708        H  0.96396004  0.16348656  0.65504846     0.10000
H709        H  0.05659448  0.15713742  0.53946292     0.08000
Br710      Br  0.06065777  0.23999182  0.56581376    -0.02600
C711        C  0.39413238  0.24971034  0.31074202    -0.09200
C712        C  0.42240776  0.24944368  0.27914751     0.07000
C713        C  0.40782809  0.25657953  0.24036313    -0.03000
C714        C  0.36625211  0.25980937  0.23401062    -0.07400
C715        C  0.33825900  0.25229214  0.26462436     0.06100
C716        C  0.35277752  0.25016946  0.30380171    -0.02500
Br717      Br  0.31806218  0.24595075  0.34908080    -0.02200
H718        H  0.40427283  0.24654848  0.34117794     0.10000
H719        H  0.35565112  0.26497067  0.20410518     0.08000
Br720      Br  0.44205452  0.25770617  0.19422898    -0.02600
C721        C  0.48488833  0.11535052  0.34417921    -0.09200
C722        C  0.50430186  0.15096459  0.35299426     0.07000
C723        C  0.52484826  0.15480858  0.38925454    -0.03000
C724        C  0.52683754  0.12271905  0.41540843    -0.07400
C725        C  0.50729142  0.08731393  0.40668414     0.06100
C726        C  0.48592704  0.08360718  0.37098841    -0.02500
Br727      Br  0.45864582  0.03572996  0.35717714    -0.02200
H728        H  0.46895406  0.11228347  0.31638824     0.10000
H729        H  0.54228536  0.12595183  0.44347267     0.08000
Br730      Br  0.54759589  0.20394924  0.40635945    -0.02600
C731        C  0.59569140  0.23009479  0.23500268    -0.09200
C732        C  0.57803939  0.24528974  0.27002259     0.07000
C733        C  0.60320617  0.26205272  0.29878582    -0.03000
C734        C  0.64487756  0.26026214  0.29415012    -0.07400
C735        C  0.66298877  0.24385736  0.25985400     0.06100
C736        C  0.63751760  0.23043142  0.22914129    -0.02500
Br737      Br  0.65717435  0.21449801  0.17765948    -0.02200
H738        H  0.57694745  0.21672249  0.21264390     0.10000
H739        H  0.66318232  0.27161240  0.31791490     0.08000
Br740      Br  0.58164335  0.28652553  0.34593068    -0.02600
C741        C  0.89980489  0.20716583  0.26429532    -0.09200
C742        C  0.92219092  0.24042161  0.27591502     0.07000
C743        C  0.90106071  0.27399424  0.29029874    -0.03000
C744        C  0.85888622  0.27450336  0.29098131    -0.07400
C745        C  0.83646987  0.24177195  0.27794755     0.06100
C746        C  0.85785126  0.20712494  0.26637847    -0.02500
Br747      Br  0.83202322  0.15714294  0.25824956    -0.02200
H748        H  0.91533512  0.17983744  0.25620482     0.10000
H749        H  0.84370219  0.30067626  0.30192760     0.08000
Br750      Br  0.92856772  0.31874745  0.31171090    -0.02600
C751        C  0.58206066  0.53511915  0.09942739    -0.09200
C752        C  0.54859551  0.51213055  0.10836578     0.07000
C753        C  0.54804990  0.48790434  0.14255844    -0.03000
C754        C  0.58128136  0.48748220  0.16759080    -0.07400
C755        C  0.61510364  0.51017144  0.15799104     0.06100
C756        C  0.61551658  0.53363243  0.12318221    -0.02500
Br757      Br  0.66202199  0.56104891  0.10367537    -0.02200
H758        H  0.58323114  0.55255424  0.07220883     0.10000
H759        H  0.58095423  0.46924095  0.19424960     0.08000
Br760      Br  0.50280980  0.45597029  0.15641866    -0.02600
C761        C  0.74915793  0.41729824  0.24100626    -0.09200
C762        C  0.72830375  0.43050120  0.20734398     0.07000
C763        C  0.72097867  0.40188581  0.17723206    -0.03000
C764        C  0.72607401  0.36107736  0.18486411    -0.07400
C765        C  0.74457108  0.34714489  0.21966456     0.06100
C766        C  0.75908091  0.37662183  0.24610727    -0.02500
Br767      Br  0.79645217  0.36484296  0.28711053    -0.02200
H768        H  0.75753069  0.43846761  0.26361069     0.10000
H769        H  0.71460660  0.34098888  0.16349580     0.08000
Br770      Br  0.70555228  0.41634623  0.12389036    -0.02600
C771        C  0.72103704  0.71818332  0.10536445    -0.09200
C772        C  0.75687303  0.72698149  0.08557930     0.07000
C773        C  0.78865463  0.74239181  0.10802491    -0.03000
C774        C  0.78488102  0.74699576  0.14952334    -0.07400
C775        C  0.74989623  0.73570694  0.17001757     0.06100
C776        C  0.71702029  0.72266694  0.14683958    -0.02500
Br777      Br  0.66501463  0.71112005  0.16841726    -0.02200
H778        H  0.69657311  0.70576068  0.08865670     0.10000
H779        H  0.81025241  0.75771552  0.16604095     0.08000
Br780      Br  0.83898656  0.75476267  0.08334909    -0.02600
C781        C  0.68972460  0.65085791  0.24977964    -0.09200
C782        C  0.72384552  0.66991105  0.23470994     0.07000
C783        C  0.75541854  0.64494951  0.21979758    -0.03000
C784        C  0.75020794  0.60330785  0.21635260    -0.07400
C785        C  0.71535189  0.58493819  0.23059074     0.06100
C786        C  0.68642265  0.60937931  0.25002202    -0.02500
Br787      Br  0.64059962  0.58745436  0.27689236    -0.02200
H788        H  0.66506817  0.66816469  0.26195686     0.10000
H789        H  0.77316629  0.58539087  0.20183072     0.08000
Br790      Br  0.80760527  0.66437839  0.20654636    -0.02600
C791        C  0.84080331  0.80508326  0.27407845    -0.09200
C792        C  0.82096760  0.77083533  0.28764598     0.07000
C793        C  0.84480406  0.74064164  0.30597759    -0.03000
C794        C  0.88594161  0.74673137  0.31294105    -0.07400
C795        C  0.90524579  0.78131021  0.29970563     0.06100
C796        C  0.88221263  0.80986476  0.27888886    -0.02500
Br797      Br  0.90634551  0.85518093  0.25438537    -0.02200
H798        H  0.82414587  0.82847999  0.25917377     0.10000
H799        H  0.90300311  0.72423342  0.32880396     0.08000
Br800      Br  0.82472514  0.68894968  0.31921090    -0.02600
C801        C  0.79846151  0.30403799  0.89612079    -0.09200
C802        C  0.78740507  0.27275723  0.92221655     0.07000
C803        C  0.76567483  0.24108919  0.90613559    -0.03000
C804        C  0.75782628  0.24017809  0.86490679    -0.07400
C805        C  0.77161223  0.27009596  0.83864643     0.06100
C806        C  0.79262497  0.30204374  0.85489317    -0.02500
Br807      Br  0.81889446  0.34079938  0.82215922    -0.02200
H808        H  0.81482297  0.32904273  0.90755571     0.10000
H809        H  0.74125517  0.21553585  0.85320520     0.08000
Br810      Br  0.74806549  0.19748487  0.93841010    -0.02600
C811        C  0.82422524  0.26765826  0.10728876    -0.09200
C812        C  0.79425369  0.27526981  0.07855330     0.07000
C813        C  0.75474523  0.28120465  0.09304516    -0.03000
C814        C  0.74674661  0.27896643  0.13441818    -0.07400
C815        C  0.77775964  0.27693875  0.16267766     0.06100
C816        C  0.81683619  0.27057381  0.14824540    -0.02500
Br817      Br  0.86214627  0.26747012  0.18257831    -0.02200
H818        H  0.85468294  0.26123253  0.09788386     0.10000
H819        H  0.71595036  0.27951406  0.14455777     0.08000
Br820      Br  0.71105242  0.29631316  0.05945261    -0.02600
C821        C  0.58158178  0.98858611  0.89116618    -0.09200
C822        C  0.59305825  0.00137125  0.92894088     0.07000
C823        C  0.63207241  0.01457794  0.93564082    -0.03000
C824        C  0.65942417  0.01466417  0.90402127    -0.07400
C825        C  0.64774123  0.00200032  0.86607113     0.06100
C826        C  0.60855349  0.98912575  0.85957981    -0.02500
Br827      Br  0.58998961  0.97392861  0.80786741    -0.02200
H828        H  0.55113687  0.97920313  0.88601129     0.10000
H829        H  0.68981904  0.02423899  0.90899866     0.08000
Br830      Br  0.64917205  0.03124328  0.98736471    -0.02600
C831        C  0.39389522  0.98249718  0.90665703    -0.09200
C832        C  0.42998813  0.00278686  0.90305664     0.07000
C833        C  0.43904297  0.02364216  0.86775943    -0.03000
C834        C  0.41143563  0.02434950  0.83677061    -0.07400
C835        C  0.37468974  0.00494457  0.84085357     0.06100
C836        C  0.36592187  0.98400663  0.87628828    -0.02500
Br837      Br  0.31488386  0.96056852  0.88711951    -0.02200
H838        H  0.38650457  0.96716318  0.93416240     0.10000
H839        H  0.41838018  0.04048182  0.80963345     0.08000
Br840      Br  0.48875575  0.05075171  0.86018940    -0.02600
C841        C  0.70644595  0.15558038  0.27190244    -0.09200
C842        C  0.72536662  0.17330841  0.23858990     0.07000
C843        C  0.73946152  0.14735448  0.20808389    -0.03000
C844        C  0.73482639  0.10579864  0.21150229    -0.07400
C845        C  0.71491187  0.08831637  0.24412400     0.06100
C846        C  0.70043403  0.11404993  0.27434814    -0.02500
Br847      Br  0.66983474  0.09385405  0.31834974    -0.02200
H848        H  0.69573297  0.17415216  0.29615301     0.10000
H849        H  0.74401298  0.08710773  0.18671905     0.08000
Br850      Br  0.76067968  0.16635726  0.15830679    -0.02600
C851        C  0.73436193  0.86797180  0.21224197    -0.09200
C852        C  0.71865669  0.84691688  0.24508092     0.07000
C853        C  0.70464466  0.86979522  0.27805488    -0.03000
C854        C  0.70233524  0.91176864  0.27571794    -0.07400
C855        C  0.71536424  0.93251851  0.24167286     0.06100
C856        C  0.73274313  0.90993027  0.21035156    -0.02500
Br857      Br  0.75291171  0.93543981  0.16326358    -0.02200
H858        H  0.74680270  0.85168144  0.18714427     0.10000
H859        H  0.68879199  0.92823421  0.30015431     0.08000
Br860      Br  0.69059976  0.84614999  0.32829173    -0.02600
C861        C  0.59811487  0.03657326  0.10193603    -0.09200
C862        C  0.56484630  0.01182023  0.10370922     0.07000
C863        C  0.55749783  0.98888804  0.13810312    -0.03000
C864        C  0.58426689  0.99034481  0.16980528    -0.07400
C865        C  0.61838187  0.01424854  0.16746198     0.06100
C866        C  0.62523995  0.03749032  0.13301108    -0.02500
Br867      Br  0.67295724  0.06782796  0.12419605    -0.02200
H868        H  0.60411588  0.05389116  0.07530201     0.10000
H869        H  0.57873705  0.97247554  0.19615667     0.08000
Br870      Br  0.51088612  0.95645793  0.14376661    -0.02600
C871        C  0.85615180  0.55891800  0.98824700    -0.09200
C872        C  0.88918139  0.56383518  0.01310244     0.07000
C873        C  0.89086300  0.59707174  0.03847442    -0.03000
C874        C  0.86035657  0.62538167  0.03769997    -0.07400
C875        C  0.82743423  0.62111636  0.01249480     0.06100
C876        C  0.82492447  0.58699026  0.98819295    -0.02500
Br877      Br  0.77943555  0.57652904  0.95541160    -0.02200
H878        H  0.85478480  0.53332190  0.96874898     0.10000
H879        H  0.86323654  0.65178247  0.05589367     0.08000
Br880      Br  0.93583790  0.60795037  0.07194860    -0.02600
C881        C  0.95215291  0.36333493  0.01708906    -0.09200
C882        C  0.94541543  0.39294293  0.98822788     0.07000
C883        C  0.91944539  0.38550832  0.95637410    -0.03000
C884        C  0.89751941  0.35081869  0.95645887    -0.07400
C885        C  0.90032253  0.32345309  0.98801781     0.06100
C886        C  0.93001600  0.32846588  0.01703956    -0.02500
Br887      Br  0.94014791  0.28979125  0.05809330    -0.02200
H888        H  0.97339191  0.36810637  0.04077589     0.10000
H889        H  0.87511710  0.34760836  0.93373723     0.08000
Br890      Br  0.90706364  0.42345764  0.91512587    -0.02600
C891        C  0.17168782  0.76936238  0.10290344    -0.09200
C892        C  0.19957654  0.75028555  0.07724141     0.07000
C893        C  0.23331139  0.73206988  0.09496045    -0.03000
C894        C  0.23804131  0.73266448  0.13679268    -0.07400
C895        C  0.20822799  0.74879147  0.16241671     0.06100
C896        C  0.17419495  0.76628341  0.14450626    -0.02500
Br897      Br  0.12621250  0.77894961  0.17400241    -0.02200
H898        H  0.14451723  0.78191588  0.09040686     0.10000
H899        H  0.26482542  0.71946907  0.14934056     0.08000
Br900      Br  0.27166801  0.70261981  0.06379188    -0.02600
C901        C  0.21902895  0.76375400  0.90989351    -0.09200
C902        C  0.20126637  0.72828640  0.92192876     0.07000
C903        C  0.19673115  0.69842314  0.89213349    -0.03000
C904        C  0.20529859  0.70652687  0.85156955    -0.07400
C905        C  0.22328590  0.74229869  0.83944720     0.06100
C906        C  0.23130670  0.77011840  0.87024197    -0.02500
Br907      Br  0.26375290  0.81537473  0.86338686    -0.02200
H908        H  0.22407386  0.78680938  0.93172140     0.10000
H909        H  0.19927308  0.68382912  0.82970689     0.08000
Br910      Br  0.18453338  0.64405013  0.90494055    -0.02600
C911        C  0.08191699  0.60581405  0.04160963    -0.09200
C912        C  0.04656121  0.60781739  0.01991940     0.07000
C913        C  0.03695518  0.64186147  0.99737209    -0.03000
C914        C  0.06463774  0.67234295  0.99423025    -0.07400
C915        C  0.10149363  0.66887328  0.01347565     0.06100
C916        C  0.10979206  0.63571797  0.03816996    -0.02500
Br917      Br  0.16025901  0.62672738  0.06424477    -0.02200
H918        H  0.08947749  0.57928704  0.05853486     0.10000
H919        H  0.05790365  0.69822790  0.97607647     0.08000
Br920      Br  0.98678829  0.64762727  0.97040909    -0.02600
C921        C  0.81157974  0.71410041  0.60976901    -0.09200
C922        C  0.77892431  0.72605637  0.58545701     0.07000
C923        C  0.74488901  0.74208091  0.60522205    -0.03000
C924        C  0.74453136  0.74574116  0.64702341    -0.07400
C925        C  0.77591120  0.73112656  0.67097695     0.06100
C926        C  0.80900396  0.71343720  0.65152847    -0.02500
Br927      Br  0.84945124  0.68416076  0.67989501    -0.02200
H928        H  0.83885000  0.70247486  0.59630486     0.10000
H929        H  0.71862044  0.75933022  0.66106289     0.08000
Br930      Br  0.69634925  0.75599783  0.57823110    -0.02600
C931        C  0.72621257  0.71513039  0.40983483    -0.09200
C932        C  0.75080843  0.74025503  0.43202009     0.07000
C933        C  0.77163783  0.77010319  0.41116308    -0.03000
C934        C  0.76899689  0.77304713  0.36928140    -0.07400
C935        C  0.74884244  0.74421175  0.34653670     0.06100
C936        C  0.72775538  0.71447462  0.36810317    -0.02500
Br937      Br  0.70905222  0.66581298  0.34539479    -0.02200
H938        H  0.71156153  0.69075882  0.42511117     0.10000
H939        H  0.78453790  0.79701938  0.35447868     0.08000
Br940      Br  0.80784651  0.80430939  0.43819506    -0.02600
C941        C  0.83211468  0.59865681  0.50585700    -0.09200
C942        C  0.83557898  0.63485657  0.48539147     0.07000
C943        C  0.86974094  0.64230126  0.46154325    -0.03000
C944        C  0.90048351  0.61425735  0.46023797    -0.07400
C945        C  0.89820402  0.57964659  0.48319892     0.06100
C946        C  0.86337769  0.57107583  0.50516279    -0.02500
Br947      Br  0.85703810  0.52238246  0.53450603    -0.02200
H948        H  0.80570714  0.59261889  0.52372421     0.10000
H949        H  0.92737309  0.62064455  0.44321240     0.08000
Br950      Br  0.87899071  0.69174771  0.43404157    -0.02600
C951        C  0.27668197  0.91824947  0.26171932    -0.09200
C952        C  0.25801783  0.93849059  0.23010894     0.07000
C953        C  0.23515073  0.91572812  0.20346541    -0.03000
C954        C  0.23436579  0.87408146  0.20625108    -0.07400
C955        C  0.25374478  0.85318439  0.23715607     0.06100
C956        C  0.27362848  0.87644856  0.26624755    -0.02500
Br957      Br  0.29524499  0.85425464  0.31425457    -0.02200
H958        H  0.29469703  0.93486253  0.28240278     0.10000
H959        H  0.21856241  0.85805455  0.18345510     0.08000
Br960      Br  0.20553317  0.94045396  0.16114082    -0.02600
C961        C  0.36763629  0.98596359  0.07012555    -0.09200
C962        C  0.39979236  0.01193171  0.07455087     0.07000
C963        C  0.40097452  0.03783610  0.10728396    -0.03000
C964        C  0.37031118  0.03714386  0.13525504    -0.07400
C965        C  0.33764370  0.01166761  0.13091175     0.06100
C966        C  0.33622905  0.98596566  0.09779374    -0.02500
Br967      Br  0.29191931  0.95174605  0.08764183    -0.02200
H968        H  0.36681989  0.96593495  0.04488476     0.10000
H969        H  0.37247737  0.05620288  0.16113229     0.08000
Br970      Br  0.44503739  0.07260980  0.11736413    -0.02600
C971        C  0.31223533  0.11647924  0.22637691    -0.09200
C972        C  0.27711989  0.09415271  0.23261654     0.07000
C973        C  0.24239290  0.11560252  0.24368457    -0.03000
C974        C  0.24309478  0.15765381  0.24611778    -0.07400
C975        C  0.27725863  0.18038135  0.23593045     0.06100
C976        C  0.31178770  0.15831509  0.22445147    -0.02500
Br977      Br  0.35460450  0.17976309  0.19368036    -0.02200
H978        H  0.33932028  0.10102318  0.21690878     0.10000
H979        H  0.21549515  0.17276721  0.25349282     0.08000
Br980      Br  0.19233301  0.08956342  0.25194108    -0.02600
C981        C  0.27350438  0.30434660  0.89144396    -0.09200
C982        C  0.23771675  0.29575824  0.91162349     0.07000
C983        C  0.20502749  0.28225005  0.88922712    -0.03000
C984        C  0.20789099  0.27930892  0.84759033    -0.07400
C985        C  0.24307030  0.28973005  0.82692941     0.06100
C986        C  0.27666687  0.30091084  0.84973384    -0.02500
Br987      Br  0.32847804  0.30972421  0.82655029    -0.02200
H988        H  0.29877446  0.31513290  0.90810159     0.10000
H989        H  0.18209665  0.26940217  0.83117561     0.08000
Br990      Br  0.15520534  0.26875184  0.91437814    -0.02600
C991        C  0.09815919  0.40672235  0.01751878    -0.09200
C992        C  0.10060174  0.44403935  0.99937621     0.07000
C993        C  0.13598682  0.45533526  0.97957375    -0.03000
C994        C  0.16856400  0.42872742  0.97837702    -0.07400
C995        C  0.16571750  0.39112223  0.99650531     0.06100
C996        C  0.12993252  0.38010759  0.01575018    -0.02500
Br997      Br  0.12072989  0.32795624  0.03706495    -0.02200
H998        H  0.07058545  0.39752495  0.03190651     0.10000
H999        H  0.19592320  0.43717829  0.96319992     0.08000
Br1000     Br  0.14148533  0.50675649  0.95536437    -0.02600
C1001       C  0.21847633  0.26595274  0.12756845    -0.09200
C1002       C  0.24736457  0.28571803  0.15045516     0.07000
C1003       C  0.27843041  0.30546286  0.12921997    -0.03000
C1004       C  0.27699397  0.30923704  0.08753560    -0.07400
C1005       C  0.24660294  0.29180045  0.06529272     0.06100
C1006       C  0.21841801  0.26825340  0.08567847    -0.02500
Br1007     Br  0.17823971  0.23989422  0.05735026    -0.02200
H1008       H  0.19476414  0.24963241  0.14209075     0.10000
H1009       H  0.29898745  0.32741839  0.07240717     0.08000
Br1010     Br  0.32530225  0.32647602  0.15363009    -0.02600
C1011       C  0.24000048  0.41893057  0.77606426    -0.09200
C1012       C  0.27423278  0.43746976  0.76070297     0.07000
C1013       C  0.30284769  0.41326154  0.74061532    -0.03000
C1014       C  0.29956060  0.37168460  0.74042926    -0.07400
C1015       C  0.26660719  0.35246053  0.75780825     0.06100
C1016       C  0.23520991  0.37724115  0.77334247    -0.02500
Br1017     Br  0.18349496  0.35751800  0.78797529    -0.02200
H1018       H  0.21735785  0.43675518  0.79118376     0.10000
H1019       H  0.32367634  0.35440628  0.72714759     0.08000
Br1020     Br  0.34880411  0.43586231  0.71476841    -0.02600
C1021       C  0.28039790  0.61899891  0.81296164    -0.09200
C1022       C  0.27005007  0.59363861  0.78084290     0.07000
C1023       C  0.25081074  0.61179780  0.74803256    -0.03000
C1024       C  0.24459609  0.65352085  0.74737197    -0.07400
C1025       C  0.25989485  0.67861345  0.77722387     0.06100
C1026       C  0.27857738  0.66058318  0.80998543    -0.02500
Br1027     Br  0.30695472  0.69087515  0.84884628    -0.02200
H1028       H  0.29369588  0.60660212  0.83960905     0.10000
H1029       H  0.22908729  0.66669928  0.72235031     0.08000
Br1030     Br  0.23544226  0.58246149  0.70183366    -0.02600
C1031       C  0.40690558  0.50136659  0.83845075    -0.09200
C1032       C  0.36625306  0.50978277  0.84474576     0.07000
C1033       C  0.35143999  0.51858154  0.88312014    -0.03000
C1034       C  0.37766032  0.51994015  0.91467698    -0.07400
C1035       C  0.41820223  0.51169625  0.90854050     0.06100
C1036       C  0.43314739  0.50198446  0.87051383    -0.02500
Br1037     Br  0.48870378  0.49015180  0.86129967    -0.02200
H1038       H  0.41805249  0.49454764  0.80880519     0.10000
H1039       H  0.36628041  0.52663798  0.94431260     0.08000
Br1040     Br  0.29557026  0.52782046  0.89420884    -0.02600
C1041       C  0.34242971  0.76456730  0.28384100    -0.09200
C1042       C  0.31982082  0.78281423  0.25346747     0.07000
C1043       C  0.34129794  0.79910223  0.22058766    -0.03000
C1044       C  0.38339924  0.80154267  0.22152401    -0.07400
C1045       C  0.40551268  0.78510983  0.25305969     0.06100
C1046       C  0.38445366  0.76459706  0.28315238    -0.02500
Br1047     Br  0.41234070  0.73767367  0.32519750    -0.02200
H1048       H  0.32748298  0.75063265  0.30886291     0.10000
H1049       H  0.39890309  0.81741611  0.19800934     0.08000
Br1050     Br  0.31612308  0.81568673  0.17200518    -0.02600
C1051       C  0.58370129  0.79923074  0.22818348    -0.09200
C1052       C  0.56120356  0.78484069  0.26059327     0.07000
C1053       C  0.58232845  0.76853031  0.29315640    -0.03000
C1054       C  0.62433457  0.76821809  0.29366387    -0.07400
C1055       C  0.64727297  0.78314350  0.26166143     0.06100
C1056       C  0.62599616  0.79805503  0.22807319    -0.02500
Br1057     Br  0.65174185  0.81650099  0.18027128    -0.02200
H1058       H  0.56827361  0.81319778  0.20347458     0.10000
H1059       H  0.63906213  0.75681092  0.31998887     0.08000
Br1060     Br  0.55463814  0.74911095  0.33949673    -0.02600
C1061       C  0.50629180  0.90833992  0.33561876    -0.09200
C1062       C  0.47874116  0.87726347  0.33748372     0.07000
C1063       C  0.45610994  0.87127273  0.37272445    -0.03000
C1064       C  0.46264898  0.89539182  0.40558496    -0.07400
C1065       C  0.49203554  0.92459709  0.40424418     0.06100
C1066       C  0.51364275  0.93153701  0.36878936    -0.02500
Br1067     Br  0.55289705  0.97260214  0.36317767    -0.02200
H1068       H  0.52344624  0.91349168  0.30857486     0.10000
H1069       H  0.44560905  0.89051780  0.43275591     0.08000
Br1070     Br  0.41834838  0.82925204  0.37986272    -0.02600
C1071       C  0.79653700  0.23721612  0.59902881    -0.09200
C1072       C  0.78143089  0.27052215  0.57862915     0.07000
C1073       C  0.76224943  0.30071492  0.60115474    -0.03000
C1074       C  0.75954738  0.29787454  0.64296746    -0.07400
C1075       C  0.77621587  0.26536513  0.66388579     0.06100
C1076       C  0.79361237  0.23399935  0.64082926    -0.02500
Br1077     Br  0.81203700  0.18452244  0.66323118    -0.02200
H1078       H  0.81186527  0.21395654  0.58236231     0.10000
H1079       H  0.74514973  0.32192590  0.65917163     0.08000
Br1080     Br  0.74058975  0.34733755  0.57589168    -0.02600
C1081       C  0.75155943  0.29459410  0.40633362    -0.09200
C1082       C  0.77355399  0.26385192  0.42441526     0.07000
C1083       C  0.78911041  0.23356164  0.39979170    -0.03000
C1084       C  0.78490510  0.23574266  0.35813898    -0.07400
C1085       C  0.76627622  0.26867223  0.33898488     0.06100
C1086       C  0.74748527  0.29744741  0.36465916    -0.02500
Br1087     Br  0.71784579  0.34382076  0.34822682    -0.02200
H1088       H  0.74015369  0.31864905  0.42484143     0.10000
H1089       H  0.79726056  0.21145104  0.34071735     0.08000
Br1090     Br  0.81918812  0.19005579  0.42190014    -0.02600
C1091       C  0.86089783  0.37800107  0.46695747    -0.09200
C1092       C  0.87221435  0.34483451  0.49001399     0.07000
C1093       C  0.90925854  0.34439406  0.50951944    -0.03000
C1094       C  0.93339494  0.37783380  0.50732514    -0.07400
C1095       C  0.92173229  0.41109790  0.48471733     0.06100
C1096       C  0.88550523  0.41098125  0.46395615    -0.02500
Br1097     Br  0.86668384  0.45624955  0.43424408    -0.02200
H1098       H  0.83217689  0.37872911  0.45221131     0.10000
H1099       H  0.96154997  0.37781979  0.52310921     0.08000
Br1100     Br  0.92883497  0.29863707  0.53802638    -0.02600
loop_ 
_geom_bond_atom_site_label_1 
_geom_bond_atom_site_label_2 
_geom_bond_distance 
_geom_bond_site_symmetry_2 
_ccdc_geom_bond_type 
C1            C2   1.427       .  A
C1            C6   1.400       .  A
C1         C1072   1.497       .  S
C2            C3   1.426       .  A
C2            H7   1.082       .  S
C3            C4   1.395       .  A
C3         C1082   1.493       .  S
C4            C5   1.390       .  A
C4            H8   1.086       .  S
C5            C6   1.395       .  A
C5         C1092   1.466       .  S
C6            H9   1.085       .  S
C10          C11   1.399       .  A
C10          C15   1.431       .  A
C10        C1045   1.494       .  S
C11          C12   1.389       .  A
C11          H16   1.085       .  S
C12          C13   1.391       .  A
C12        C1062   1.467       .  S
C13          C14   1.392       .  A
C13          H17   1.086       .  S
C14          C15   1.428       .  A
C14        C1052   1.498       .  S
C15          H18   1.082       .  S
C19          C20   1.403       .  A
C19          C24   1.441       .  A
C19        C1022   1.524       .  S
C20          C21   1.381       .  A
C20          H25   1.084       .  S
C21          C22   1.379       .  A
C21        C1032   1.449       .  S
C22          C23   1.396       .  A
C22          H26   1.086       .  S
C23          C24   1.437       .  A
C23        C1012   1.502       .  S
C24          H27   1.080       .  S
C28          C29   1.400       .  A
C28          C33   1.424       .  A
C28         C982   1.490       .  S
C29          C30   1.391       .  A
C29          H34   1.085       .  S
C30          C31   1.392   1_556  A
C30         C995   1.464       .  S
C31          C32   1.397       .  A
C31          H35   1.086       .  S
C32          C33   1.423   1_554  A
C32        C1005   1.491       .  S
C33          H36   1.082       .  S
C37          C38   1.399       .  A
C37          C42   1.437   1_565  A
C37         C952   1.503       .  S
C38          C39   1.388   1_565  A
C38          H43   1.084       .  S
C39          C40   1.390       .  A
C39         C965   1.471       .  S
C40          C41   1.401       .  A
C40          H44   1.085       .  S
C41          C42   1.436       .  A
C41         C972   1.520       .  S
C42          H45   1.082       .  S
C46          C47   1.437       .  A
C46          C51   1.405       .  A
C46         C922   1.520       .  S
C47          C48   1.430       .  A
C47          H52   1.080       .  S
C48          C49   1.394       .  A
C48         C932   1.496       .  S
C49          C50   1.377       .  A
C49          H53   1.086       .  S
C50          C51   1.387       .  A
C50         C942   1.461       .  S
C51          H54   1.082       .  S
C55          C56   1.442       .  A
C55          C60   1.404       .  A
C55         C902   1.520       .  S
C56          C57   1.434   1_556  A
C56          H61   1.082       .  S
C57          C58   1.391       .  A
C57         C892   1.507       .  S
C58          C59   1.377       .  A
C58          H62   1.086       .  S
C59          C60   1.391   1_554  A
C59         C915   1.457       .  S
C60          H63   1.081       .  S
O64         Cu72   1.982       .  S
O64          C74   1.276   1_554  A
O65         Cu72   1.975   1_455  S
O65          C75   1.274       .  A
O66         Cu72   1.980       .  S
O66          C76   1.274       .  A
O67         Cu72   1.971   1_455  S
O67          C77   1.274       .  A
O68         Cu73   2.003   1_455  S
O68          C77   1.276   1_556  A
O69         Cu73   2.000       .  S
O69          C76   1.277   1_556  A
O70         Cu73   1.964   1_455  S
O70          C75   1.273   1_556  A
O71         Cu73   1.973       .  S
O71          C74   1.273       .  A
Cu72        Cu73   2.381   1_554  S
C74         C882   1.460       .  S
C75         C912   1.444       .  S
C76         C872   1.459       .  S
C77         C992   1.456   1_554  S
C78          C79   1.396       .  A
C78          C83   1.434       .  A
C78         C845   1.506       .  S
C79          C80   1.393       .  A
C79          H84   1.085       .  S
C80          C81   1.394   1_545  A
C80         C865   1.471       .  S
C81          C82   1.399       .  A
C81          H85   1.085       .  S
C82          C83   1.434   1_565  A
C82         C855   1.507       .  S
C83          H86   1.082       .  S
O87         Cu95   1.977       .  S
O87          C97   1.274   1_565  A
O88         Cu95   1.982   1_556  S
O88          C98   1.274   1_565  A
O89         Cu95   1.998       .  S
O89          C99   1.276   1_565  A
O90         Cu95   1.991   1_556  S
O90         C100   1.276   1_565  A
O91         Cu96   1.990   1_556  S
O91         C100   1.275       .  A
O92         Cu96   1.983       .  S
O92          C99   1.275       .  A
O93         Cu96   1.977   1_556  S
O93          C98   1.273       .  A
O94         Cu96   1.982       .  S
O94          C97   1.275       .  A
Cu95        Cu96   2.383   1_565  S
C97         C962   1.453       .  S
C98         C822   1.444       .  S
C99         C862   1.460       .  S
C100        C832   1.458       .  S
C101        C102   1.434       .  A
C101        C106   1.404       .  A
C101        C812   1.519       .  S
C102        C103   1.431   1_554  A
C102        H107   1.078       .  S
C103        C104   1.399       .  A
C103        C802   1.507       .  S
C104        C105   1.388       .  A
C104        H108   1.085       .  S
C105        C106   1.392   1_556  A
C105        C885   1.473       .  S
C106        H109   1.083       .  S
C110        H111   1.107       .  S
C110        C116   1.563       .  S
C110        C115   1.559       .  S
C110        C114   1.550       .  S
C112        H113   1.093       .  S
C112        C118   1.550       .  S
C112        C117   1.556       .  S
C112        C119   1.550       .  S
C114        C117   1.383       .  D
C114        C852   1.522       .  S
C115        C118   1.376       .  D
C115        C775   1.513       .  S
C116        C119   1.391       .  D
C116        C792   1.520       .  S
C117       C1055   1.520       .  S
C118        C782   1.524       .  S
C119        C935   1.524       .  S
C120        C121   1.395       .  A
C120        C125   1.434       .  A
C120        C785   1.507       .  S
C121        C122   1.382       .  A
C121        H126   1.085       .  S
C122        C123   1.385       .  A
C122        C755   1.462       .  S
C123        C124   1.404       .  A
C123        H127   1.083       .  S
C124        C125   1.438       .  A
C124        C762   1.513       .  S
C125        H128   1.082       .  S
C129        H130   1.102       .  S
C129        C135   1.549       .  S
C129        C134   1.550       .  S
C129        C133   1.546       .  S
C131        H132   1.094       .  S
C131        C137   1.554       .  S
C131        C136   1.555       .  S
C131        C138   1.559       .  S
C133        C136   1.382       .  D
C133        C815   1.505       .  S
C134        C137   1.387       .  D
C134        C842   1.526       .  S
C135        C138   1.390       .  D
C135        C745   1.513       .  S
C136        C765   1.525       .  S
C137        C735   1.508       .  S
C138       C1085   1.536       .  S
C139        C140   1.430       .  A
C139        C144   1.407       .  A
C139        C712   1.510       .  S
C140        C141   1.425       .  A
C140        H145   1.081       .  S
C141        C142   1.395       .  A
C141        C732   1.490       .  S
C142        C143   1.387       .  A
C142        H146   1.086       .  S
C143        C144   1.391       .  A
C143        C722   1.466       .  S
C144        H147   1.084       .  S
C148        C149   1.422   1_655  A
C148        C153   1.396       .  A
C148        C692   1.489       .  S
C149        C150   1.423       .  A
C149        H154   1.082       .  S
C150        C151   1.396       .  A
C150        C682   1.487       .  S
C151        C152   1.392       .  A
C151        H155   1.084       .  S
C152        C153   1.394   1_455  A
C152        C702   1.471       .  S
C153        H156   1.086       .  S
O157       Cu165   2.021   1_565  S
O157        C167   1.279       .  A
O158       Cu165   2.009       .  S
O158        C168   1.278       .  A
O159       Cu165   1.974   1_565  S
O159        C169   1.273       .  A
O160       Cu165   1.974       .  S
O160        C170   1.273       .  A
O161       Cu166   1.972       .  S
O161        C170   1.274   1_655  A
O162       Cu166   1.974   1_565  S
O162        C169   1.274   1_655  A
O163       Cu166   1.961       .  S
O163        C168   1.272   1_655  A
O164       Cu166   1.956   1_565  S
O164        C167   1.272   1_655  A
Cu165      Cu166   2.384   1_455  S
C167        C672   1.459       .  S
C168        C705   1.456       .  S
C169        C652   1.440       .  S
C170        C665   1.445       .  S
C171        C172   1.396       .  A
C171        C176   1.430       .  A
C171        C632   1.492       .  S
C172        C173   1.385       .  A
C172        H177   1.086       .  S
C173        C174   1.386       .  A
C173        C642   1.453       .  S
C174        C175   1.393       .  A
C174        H178   1.086       .  S
C175        C176   1.429       .  A
C175        C622   1.494       .  S
C176        H179   1.082       .  S
C180        C181   1.424   1_565  A
C180        C185   1.397       .  A
C180        C605   1.491       .  S
C181        C182   1.426       .  A
C181        H186   1.082       .  S
C182        C183   1.401       .  A
C182        C615   1.497       .  S
C183        C184   1.393       .  A
C183        H187   1.085       .  S
C184        C185   1.391   1_545  A
C184        C835   1.469       .  S
C185        H188   1.086       .  S
C189        H190   1.104       .  S
C189        C195   1.559       .  S
C189        C194   1.551       .  S
C189        C193   1.549       .  S
C191        H192   1.100       .  S
C191        C197   1.546       .  S
C191        C196   1.550       .  S
C191        C198   1.542       .  S
C193        C196   1.386       .  D
C193        C635   1.516       .  S
C194        C197   1.379       .  D
C194        C595   1.510       .  S
C195        C198   1.380       .  D
C195       C1015   1.521       .  S
C196        C685   1.511       .  S
C197        C612   1.509       .  S
C198        C985   1.507       .  S
C199        C200   1.392       .  A
C199        C204   1.429       .  A
C199        C582   1.491       .  S
C200        C201   1.380       .  A
C200        H205   1.086       .  S
C201        C202   1.389       .  A
C201        C575   1.453       .  S
C202        C203   1.400       .  A
C202        H206   1.085       .  S
C203        C204   1.431       .  A
C203        C592   1.501       .  S
C204        H207   1.082       .  S
C208        H209   1.108       .  S
C208        C214   1.543       .  S
C208        C213   1.550       .  S
C208        C212   1.550       .  S
C210        H211   1.108       .  S
C210        C216   1.543       .  S
C210        C215   1.550       .  S
C210        C217   1.566       .  S
C212        C215   1.376       .  D
C212       C1075   1.519       .  S
C213        C216   1.388       .  D
C213        C562   1.509       .  S
C214        C217   1.391       .  D
C214        C585   1.510       .  S
C215        C695   1.517       .  S
C216        C805   1.503       .  S
C217        C552   1.526       .  S
C218        C219   1.393       .  A
C218        C223   1.429       .  A
C218        C532   1.497       .  S
C219        C220   1.389       .  A
C219        H224   1.085       .  S
C220        C221   1.391       .  A
C220        C542   1.470       .  S
C221        C222   1.409       .  A
C221        H225   1.082       .  S
C222        C223   1.438       .  A
C222        C565   1.531       .  S
C223        H226   1.077       .  S
C227        H228   1.106       .  S
C227        C233   1.565       .  S
C227        C232   1.553       .  S
C227        C231   1.549       .  S
C229        H230   1.104       .  S
C229        C235   1.546       .  S
C229        C234   1.567       .  S
C229        C236   1.555       .  S
C231        C234   1.391       .  D
C231        C512   1.522       .  S
C232        C235   1.387       .  D
C232        C522   1.521       .  S
C233        C236   1.387       .  D
C233        C502   1.524       .  S
C234        C492   1.526       .  S
C235        C925   1.511       .  S
C236        C535   1.538       .  S
C237        C238   1.430       .  A
C237        C242   1.399       .  A
C237        C495   1.499       .  S
C238        C239   1.430       .  A
C238        H243   1.082       .  S
C239        C240   1.397       .  A
C239        C472   1.499       .  S
C240        C241   1.390       .  A
C240        H244   1.085       .  S
C241        C242   1.390       .  A
C241        C485   1.459       .  S
C242        H245   1.085       .  S
C246        H247   1.103       .  S
C246        C252   1.554       .  S
C246        C251   1.566       .  S
C246        C250   1.554       .  S
C248        H249   1.092       .  S
C248        C254   1.558       .  S
C248        C253   1.567       .  S
C248        C255   1.553       .  S
C250        C253   1.391       .  D
C250        C452   1.514       .  S
C251        C254   1.388       .  D
C251        C602   1.527       .  S
C252        C255   1.386       .  D
C252        C905   1.534       .  S
C253        C462   1.545       .  S
C254        C475   1.540       .  S
C255       C1025   1.508       .  S
C256        C257   1.407       .  A
C256        C261   1.429       .  A
C256        C795   1.504       .  S
C257        C258   1.402       .  A
C257        H262   1.084       .  S
C258        C259   1.387   1_655  A
C258        C675   1.474       .  S
C259        C260   1.393       .  A
C259        H263   1.086       .  S
C260        C261   1.426   1_455  A
C260        C442   1.497       .  S
C261        H264   1.082       .  S
C265        H266   1.105       .  S
C265        C271   1.551       .  S
C265        C270   1.559       .  S
C265        C269   1.557       .  S
C267        H268   1.099       .  S
C267        C273   1.552       .  S
C267        C272   1.542       .  S
C267        C274   1.552       .  S
C269        C272   1.377       .  D
C269        C422   1.514       .  S
C270        C273   1.387       .  D
C270       C1042   1.517       .  S
C271        C274   1.382       .  D
C271        C435   1.512       .  S
C272        C445   1.507       .  S
C273        C955   1.526       .  S
C274        C895   1.514       .  S
C275        C276   1.430       .  A
C275        C280   1.398       .  A
C275        C432   1.502       .  S
C276        C277   1.430       .  A
C276        H281   1.082       .  S
C277        C278   1.396       .  A
C277        C402   1.500       .  S
C278        C279   1.392       .  A
C278        H282   1.086       .  S
C279        C280   1.394       .  A
C279        C412   1.462       .  S
C280        H283   1.086       .  S
C284        C285   1.431       .  A
C284        C289   1.403       .  A
C284        C465   1.503       .  S
C285        C286   1.430       .  A
C285        H290   1.082       .  S
C286        C287   1.396       .  A
C286        C425   1.504       .  S
C287        C288   1.392       .  A
C287        H291   1.085       .  S
C288        C289   1.396       .  A
C288        C392   1.471       .  S
C289        H292   1.085       .  S
C293        C294   1.436       .  A
C293        C298   1.398       .  A
C293        C525   1.510       .  S
C294        C295   1.429   1_655  A
C294        H299   1.082       .  S
C295        C296   1.395       .  A
C295        C455   1.495       .  S
C296        C297   1.380       .  A
C296        H300   1.086       .  S
C297        C298   1.385   1_455  A
C297        C655   1.448       .  S
C298        H301   1.083       .  S
C302        C303   1.396       .  A
C302        C307   1.434       .  A
C302        C515   1.505       .  S
C303        C304   1.387   1_565  A
C303        H308   1.086       .  S
C304        C305   1.386       .  A
C304        C825   1.455       .  S
C305        C306   1.398       .  A
C305        H309   1.085       .  S
C306        C307   1.435   1_545  A
C306        C555   1.504       .  S
C307        H310   1.082       .  S
C311        C312   1.394       .  A
C311        C316   1.430   1_455  A
C311        C382   1.493       .  S
C312        C313   1.383       .  A
C312        H317   1.086       .  S
C313        C314   1.385   1_455  A
C313        C662   1.454       .  S
C314        C315   1.394       .  A
C314        H318   1.086       .  S
C315        C316   1.431       .  A
C315        C742   1.496       .  S
C316        H319   1.082       .  S
C320        H321   1.108       .  S
C320        C326   1.548       .  S
C320        C325   1.551       .  S
C320        C324   1.559       .  S
C322        H323   1.104       .  S
C322        C328   1.554       .  S
C322        C327   1.549       .  S
C322        C329   1.570       .  S
C324        C327   1.378       .  D
C324        C405   1.523       .  S
C325        C328   1.396       .  D
C325        C715   1.504       .  S
C326        C329   1.384       .  D
C326        C625   1.525       .  S
C327       C1002   1.520       .  S
C328        C975   1.535       .  S
C329        C385   1.523       .  S
C330        C331   1.397       .  A
C330        C335   1.420       .  A
C330        C772   1.489       .  S
C331        C332   1.396       .  A
C331        H336   1.085       .  S
C332        C333   1.395   1_554  A
C332        C875   1.475       .  S
C333        C334   1.399       .  A
C333        H337   1.084       .  S
C334        C335   1.421   1_556  A
C334        C505   1.487       .  S
C335        H338   1.083       .  S
O339       Cu347   1.975   1_556  S
O339        C349   1.273       .  A
O340       Cu347   1.991       .  S
O340        C350   1.275       .  A
O341       Cu347   2.002       .  S
O341        C351   1.277       .  A
O342       Cu347   2.002   1_556  S
O342        C352   1.278       .  A
O343       Cu348   1.967   1_556  S
O343        C352   1.272       .  A
O344       Cu348   1.959       .  S
O344        C351   1.272       .  A
O345       Cu348   1.965       .  S
O345        C350   1.274       .  A
O346       Cu348   1.971   1_556  S
O346        C349   1.273       .  A
Cu347      Cu348   2.384       .  S
C349       C1035   1.437       .  S
C350        C752   1.451       .  S
C351        C415   1.448       .  S
C352        C545   1.461       .  S
O353       Cu361   1.971   1_565  S
O353        C363   1.274       .  A
O354       Cu361   1.967       .  S
O354        C364   1.274       .  A
O355       Cu361   1.986       .  S
O355        C365   1.274       .  A
O356       Cu361   1.994   1_565  S
O356        C366   1.275       .  A
O357       Cu362   1.992       .  S
O357        C366   1.276       .  A
O358       Cu362   1.994   1_545  S
O358        C365   1.276       .  A
O359       Cu362   1.975   1_545  S
O359        C364   1.273       .  A
O360       Cu362   1.974       .  S
O360        C363   1.274       .  A
Cu361      Cu362   2.383   1_545  S
C363       C1065   1.450       .  S
C364        C572   1.441       .  S
C365        C725   1.454       .  S
C366        C482   1.456       .  S
O367       Cu375   2.014   1_455  S
O367        C377   1.279       .  A
O368       Cu375   2.003       .  S
O368        C378   1.278       .  A
O369       Cu375   1.965       .  S
O369        C379   1.272       .  A
O370       Cu375   1.974   1_455  S
O370        C380   1.273       .  A
O371       Cu376   1.973   1_455  S
O371        C380   1.274       .  A
O372       Cu376   1.980       .  S
O372        C379   1.275       .  A
O373       Cu376   1.971       .  S
O373        C378   1.273       .  A
O374       Cu376   1.980   1_455  S
O374        C377   1.273       .  A
Cu375      Cu376   2.385       .  S
C377        C395   1.461       .  S
C378       C1095   1.455       .  S
C379        C945   1.446       .  S
C380        C645   1.442       .  S
C381        C382   1.402       .  A
C381        C386   1.411       .  A
C381        H388   1.083       .  S
C382        C383   1.411       .  A
C383        C384   1.403       .  A
C383       Br390   1.920       .  S
C384        C385   1.410       .  A
C384        H389   1.079       .  S
C385        C386   1.429       .  A
C386       Br387   1.921       .  S
C391        C392   1.402       .  A
C391        C396   1.394       .  A
C391        H398   1.084       .  S
C392        C393   1.409       .  A
C393        C394   1.396       .  A
C393       Br400   1.921       .  S
C394        C395   1.400       .  A
C394        H399   1.084       .  S
C395        C396   1.407       .  A
C396       Br397   1.920       .  S
C401        C402   1.403       .  A
C401        C406   1.408       .  A
C401        H408   1.084       .  S
C402        C403   1.413       .  A
C403        C404   1.413       .  A
C403       Br410   1.917       .  S
C404        C405   1.410       .  A
C404        H409   1.083       .  S
C405        C406   1.426       .  A
C406       Br407   1.921       .  S
C411        C412   1.403       .  A
C411        C416   1.382       .  A
C411        H418   1.084       .  S
C412        C413   1.406       .  A
C413        C414   1.399       .  A
C413       Br420   1.918       .  S
C414        C415   1.403       .  A
C414        H419   1.084       .  S
C415        C416   1.401       .  A
C416       Br417   1.923       .  S
C421        C422   1.414       .  A
C421        C426   1.412       .  A
C421        H428   1.083       .  S
C422        C423   1.412       .  A
C423        C424   1.409       .  A
C423       Br430   1.919       .  S
C424        C425   1.412       .  A
C424        H429   1.084       .  S
C425        C426   1.410       .  A
C426       Br427   1.917       .  S
C431        C432   1.410       .  A
C431        C436   1.409       .  A
C431        H438   1.084       .  S
C432        C433   1.411       .  A
C433        C434   1.413       .  A
C433       Br440   1.916       .  S
C434        C435   1.412       .  A
C434        H439   1.083       .  S
C435        C436   1.412       .  A
C436       Br437   1.916       .  S
C441        C442   1.410       .  A
C441        C446   1.402       .  A
C441        H448   1.084       .  S
C442        C443   1.409       .  A
C443        C444   1.412       .  A
C443       Br450   1.916       .  S
C444        C445   1.413       .  A
C444        H449   1.083       .  S
C445        C446   1.410       .  A
C446       Br447   1.918       .  S
C451        C452   1.415       .  A
C451        C456   1.412       .  A
C451        H458   1.083       .  S
C452        C453   1.413       .  A
C453        C454   1.399       .  A
C453       Br460   1.914       .  S
C454        C455   1.406       .  A
C454        H459   1.085       .  S
C455        C456   1.409       .  A
C456       Br457   1.915       .  S
C461        C462   1.421       .  A
C461        C466   1.412       .  A
C461        H468   1.081       .  S
C462        C463   1.432       .  A
C463        C464   1.413       .  A
C463       Br470   1.915       .  S
C464        C465   1.401       .  A
C464        H469   1.084       .  S
C465        C466   1.408       .  A
C466       Br467   1.918       .  S
C471        C472   1.399       .  A
C471        C476   1.411       .  A
C471        H478   1.084       .  S
C472        C473   1.410       .  A
C473        C474   1.409       .  A
C473       Br480   1.918       .  S
C474        C475   1.415       .  A
C474        H479   1.081       .  S
C475        C476   1.430       .  A
C476       Br477   1.905       .  S
C481        C482   1.402       .  A
C481        C486   1.395       .  A
C481        H488   1.084       .  S
C482        C483   1.404       .  A
C483        C484   1.392       .  A
C483       Br490   1.919       .  S
C484        C485   1.400       .  A
C484        H489   1.084       .  S
C485        C486   1.405       .  A
C486       Br487   1.920       .  S
C491        C492   1.412       .  A
C491        C496   1.405       .  A
C491        H498   1.080       .  S
C492        C493   1.426       .  A
C493        C494   1.414       .  A
C493       Br500   1.918       .  S
C494        C495   1.404       .  A
C494        H499   1.084       .  S
C495        C496   1.409       .  A
C496       Br497   1.919       .  S
C501        C502   1.412       .  A
C501        C506   1.402       .  A
C501        H508   1.075       .  S
C502        C503   1.426       .  A
C503        C504   1.408       .  A
C503       Br510   1.921       .  S
C504        C505   1.402       .  A
C504        H509   1.084       .  S
C505        C506   1.404       .  A
C506       Br507   1.918       .  S
C511        C512   1.408       .  A
C511        C516   1.405       .  A
C511        H518   1.083       .  S
C512        C513   1.423       .  A
C513        C514   1.416       .  A
C513       Br520   1.914       .  S
C514        C515   1.406       .  A
C514        H519   1.083       .  S
C515        C516   1.416       .  A
C516       Br517   1.921       .  S
C521        C522   1.403       .  A
C521        C526   1.405       .  A
C521        H528   1.081       .  S
C522        C523   1.424       .  A
C523        C524   1.405       .  A
C523       Br530   1.897       .  S
C524        C525   1.397       .  A
C524        H529   1.083       .  S
C525        C526   1.426       .  A
C526       Br527   1.924       .  S
C531        C532   1.399       .  A
C531        C536   1.411       .  A
C531        H538   1.084       .  S
C532        C533   1.410       .  A
C533        C534   1.409       .  A
C533       Br540   1.919       .  S
C534        C535   1.415       .  A
C534        H539   1.080       .  S
C535        C536   1.430       .  A
C536       Br537   1.907       .  S
C541        C542   1.399       .  A
C541        C546   1.388       .  A
C541        H548   1.084       .  S
C542        C543   1.412       .  A
C543        C544   1.395       .  A
C543       Br550   1.921       .  S
C544        C545   1.400       .  A
C544        H549   1.084       .  S
C545        C546   1.412       .  A
C546       Br547   1.924       .  S
C551        C552   1.410       .  A
C551        C556   1.406       .  A
C551        H558   1.079       .  S
C552        C553   1.425       .  A
C553        C554   1.416       .  A
C553       Br560   1.917       .  S
C554        C555   1.405       .  A
C554        H559   1.083       .  S
C555        C556   1.413       .  A
C556       Br557   1.920       .  S
C561        C562   1.410       .  A
C561        C566   1.412       .  A
C561        H568   1.079       .  S
C562        C563   1.402       .  A
C563        C564   1.401       .  A
C563       Br570   1.919       .  S
C564        C565   1.424       .  A
C564        H569   1.079       .  S
C565        C566   1.420       .  A
C566       Br567   1.917       .  S
C571        C572   1.397       .  A
C571        C576   1.387       .  A
C571        H578   1.084       .  S
C572        C573   1.404       .  A
C573        C574   1.389       .  A
C573       Br580   1.920       .  S
C574        C575   1.400       .  A
C574        H579   1.084       .  S
C575        C576   1.407       .  A
C576       Br577   1.922       .  S
C581        C582   1.403       .  A
C581        C586   1.411       .  A
C581        H588   1.083       .  S
C582        C583   1.414       .  A
C583        C584   1.401       .  A
C583       Br590   1.922       .  S
C584        C585   1.407       .  A
C584        H589   1.083       .  S
C585        C586   1.420       .  A
C586       Br587   1.913       .  S
C591        C592   1.410       .  A
C591        C596   1.404       .  A
C591        H598   1.084       .  S
C592        C593   1.410       .  A
C593        C594   1.412       .  A
C593       Br600   1.915       .  S
C594        C595   1.412       .  A
C594        H599   1.083       .  S
C595        C596   1.412       .  A
C596       Br597   1.915       .  S
C601        C602   1.412       .  A
C601        C606   1.402       .  A
C601        H608   1.075       .  S
C602        C603   1.425       .  A
C603        C604   1.411       .  A
C603       Br610   1.919       .  S
C604        C605   1.404       .  A
C604        H609   1.083       .  S
C605        C606   1.405       .  A
C606       Br607   1.918       .  S
C611        C612   1.412       .  A
C611        C616   1.410       .  A
C611        H618   1.083       .  S
C612        C613   1.413       .  A
C613        C614   1.405       .  A
C613       Br620   1.918       .  S
C614        C615   1.408       .  A
C614        H619   1.084       .  S
C615        C616   1.409       .  A
C616       Br617   1.916       .  S
C621        C622   1.400       .  A
C621        C626   1.411       .  A
C621        H628   1.084       .  S
C622        C623   1.411       .  A
C623        C624   1.406       .  A
C623       Br630   1.920       .  S
C624        C625   1.411       .  A
C624        H629   1.082       .  S
C625        C626   1.428       .  A
C626       Br627   1.911       .  S
C631        C632   1.403       .  A
C631        C636   1.410       .  A
C631        H638   1.083       .  S
C632        C633   1.409       .  A
C633        C634   1.405       .  A
C633       Br640   1.916       .  S
C634        C635   1.410       .  A
C634        H639   1.082       .  S
C635        C636   1.424       .  A
C636       Br637   1.917       .  S
C641        C642   1.397       .  A
C641        C646   1.387       .  A
C641        H648   1.084       .  S
C642        C643   1.409       .  A
C643        C644   1.388       .  A
C643       Br650   1.916       .  S
C644        C645   1.394       .  A
C644        H649   1.083       .  S
C645        C646   1.407       .  A
C646       Br647   1.918       .  S
C651        C652   1.399       .  A
C651        C656   1.384       .  A
C651        H658   1.084   1_455  S
C652        C653   1.401       .  A
C653        C654   1.393       .  A
C653       Br660   1.917       .  S
C654        C655   1.402       .  A
C654        H659   1.084       .  S
C655        C656   1.400       .  A
C656       Br657   1.920   1_455  S
C661        C662   1.398       .  A
C661        C666   1.386       .  A
C661        H668   1.084       .  S
C662        C663   1.408   1_455  A
C663        C664   1.387       .  A
C663       Br670   1.922       .  S
C664        C665   1.398   1_655  A
C664        H669   1.084       .  S
C665        C666   1.406       .  A
C666       Br667   1.917       .  S
C671        C672   1.398   1_655  A
C671        C676   1.387       .  A
C671        H678   1.085       .  S
C672        C673   1.406       .  A
C673        C674   1.399       .  A
C673       Br680   1.919       .  S
C674        C675   1.409   1_455  A
C674        H679   1.084       .  S
C675        C676   1.409       .  A
C676       Br677   1.913       .  S
C681        C682   1.403       .  A
C681        C686   1.405       .  A
C681        H688   1.084       .  S
C682        C683   1.410       .  A
C683        C684   1.405       .  A
C683       Br690   1.919       .  S
C684        C685   1.411       .  A
C684        H689   1.083       .  S
C685        C686   1.419       .  A
C686       Br687   1.921       .  S
C691        C692   1.398       .  A
C691        C696   1.404       .  A
C691        H698   1.084       .  S
C692        C693   1.413       .  A
C693        C694   1.409       .  A
C693       Br700   1.918       .  S
C694        C695   1.409       .  A
C694        H699   1.083       .  S
C695        C696   1.424       .  A
C696       Br697   1.913       .  S
C701        C702   1.405   1_655  A
C701        C706   1.384       .  A
C701        H708   1.083       .  S
C702        C703   1.410       .  A
C703        C704   1.396       .  A
C703       Br710   1.922       .  S
C704        C705   1.402       .  A
C704        H709   1.079       .  S
C705        C706   1.403   1_455  A
C706       Br707   1.922       .  S
C711        C712   1.414       .  A
C711        C716   1.404       .  A
C711        H718   1.084       .  S
C712        C713   1.413       .  A
C713        C714   1.411       .  A
C713       Br720   1.918       .  S
C714        C715   1.408       .  A
C714        H719   1.080       .  S
C715        C716   1.407       .  A
C716       Br717   1.910       .  S
C721        C722   1.402       .  A
C721        C726   1.394       .  A
C721        H728   1.084       .  S
C722        C723   1.409       .  A
C723        C724   1.390       .  A
C723       Br730   1.917       .  S
C724        C725   1.397       .  A
C724        H729   1.084       .  S
C725        C726   1.406       .  A
C726       Br727   1.918       .  S
C731        C732   1.405       .  A
C731        C736   1.410       .  A
C731        H738   1.083       .  S
C732        C733   1.409       .  A
C733        C734   1.401       .  A
C733       Br740   1.916       .  S
C734        C735   1.406       .  A
C734        H739   1.082       .  S
C735        C736   1.420       .  A
C736       Br737   1.918       .  S
C741        C742   1.410       .  A
C741        C746   1.404       .  A
C741        H748   1.084       .  S
C742        C743   1.408       .  A
C743        C744   1.410       .  A
C743       Br750   1.916       .  S
C744        C745   1.411       .  A
C744        H749   1.074       .  S
C745        C746   1.412       .  A
C746       Br747   1.919       .  S
C751        C752   1.397       .  A
C751        C756   1.379       .  A
C751        H758   1.085       .  S
C752        C753   1.406       .  A
C753        C754   1.398       .  A
C753       Br760   1.918       .  S
C754        C755   1.406       .  A
C754        H759   1.083       .  S
C755        C756   1.408       .  A
C756       Br757   1.925       .  S
C761        C762   1.401       .  A
C761        C766   1.413       .  A
C761        H768   1.082       .  S
C762        C763   1.421       .  A
C763        C764   1.403       .  A
C763       Br770   1.927       .  S
C764        C765   1.403       .  A
C764        H769   1.063       .  S
C765        C766   1.424       .  A
C766       Br767   1.904       .  S
C771        C772   1.399       .  A
C771        C776   1.405       .  A
C771        H778   1.084       .  S
C772        C773   1.412       .  A
C773        C774   1.406       .  A
C773       Br780   1.918       .  S
C774        C775   1.407       .  A
C774        H779   1.083       .  S
C775        C776   1.426       .  A
C776       Br777   1.921       .  S
C781        C782   1.404       .  A
C781        C786   1.400       .  A
C781        H788   1.081       .  S
C782        C783   1.428       .  A
C783        C784   1.417       .  A
C783       Br790   1.918       .  S
C784        C785   1.405       .  A
C784        H789   1.083       .  S
C785        C786   1.417       .  A
C786       Br787   1.924       .  S
C791        C792   1.408       .  A
C791        C796   1.406       .  A
C791        H798   1.082       .  S
C792        C793   1.425       .  A
C793        C794   1.414       .  A
C793       Br800   1.919       .  S
C794        C795   1.405       .  A
C794        H799   1.083       .  S
C795        C796   1.411       .  A
C796       Br797   1.913       .  S
C801        C802   1.417       .  A
C801        C806   1.401       .  A
C801        H808   1.081       .  S
C802        C803   1.407       .  A
C803        C804   1.411       .  A
C803       Br810   1.916       .  S
C804        C805   1.414       .  A
C804        H809   1.078       .  S
C805        C806   1.404       .  A
C806       Br807   1.918       .  S
C811        C812   1.417       .  A
C811        C816   1.398       .  A
C811        H818   1.083       .  S
C812        C813   1.415       .  A
C813        C814   1.414       .  A
C813       Br820   1.916       .  S
C814        C815   1.412       .  A
C814        H819   1.081       .  S
C815        C816   1.403       .  A
C816       Br817   1.913       .  S
C821        C822   1.398   1_565  A
C821        C826   1.386       .  A
C821        H828   1.084       .  S
C822        C823   1.403       .  A
C823        C824   1.395       .  A
C823       Br830   1.919       .  S
C824        C825   1.404       .  A
C824        H829   1.084       .  S
C825        C826   1.403   1_545  A
C826       Br827   1.920       .  S
C831        C832   1.397   1_565  A
C831        C836   1.389       .  A
C831        H838   1.084       .  S
C832        C833   1.407       .  A
C833        C834   1.396       .  A
C833       Br840   1.919       .  S
C834        C835   1.403       .  A
C834        H839   1.084       .  S
C835        C836   1.411   1_545  A
C836       Br837   1.919       .  S
C841        C842   1.414       .  A
C841        C846   1.415       .  A
C841        H848   1.083       .  S
C842        C843   1.420       .  A
C843        C844   1.411       .  A
C843       Br850   1.920       .  S
C844        C845   1.407       .  A
C844        H849   1.083       .  S
C845        C846   1.413       .  A
C846       Br847   1.917       .  S
C851        C852   1.409       .  A
C851        C856   1.412       .  A
C851        H858   1.083       .  S
C852        C853   1.422       .  A
C853        C854   1.414       .  A
C853       Br860   1.919       .  S
C854        C855   1.406       .  A
C854        H859   1.083       .  S
C855        C856   1.415       .  A
C856       Br857   1.917       .  S
C861        C862   1.397       .  A
C861        C866   1.388       .  A
C861        H868   1.084       .  S
C862        C863   1.408   1_545  A
C863        C864   1.397       .  A
C863       Br870   1.920       .  S
C864        C865   1.404   1_565  A
C864        H869   1.084       .  S
C865        C866   1.412       .  A
C866       Br867   1.924       .  S
C871        C872   1.401   1_556  A
C871        C876   1.399       .  A
C871        H878   1.084       .  S
C872        C873   1.408       .  A
C873        C874   1.387       .  A
C873       Br880   1.923       .  S
C874        C875   1.403       .  A
C874        H879   1.084       .  S
C875        C876   1.412   1_554  A
C876       Br877   1.921       .  S
C881        C882   1.405   1_554  A
C881        C886   1.393       .  A
C881        H888   1.084       .  S
C882        C883   1.407       .  A
C883        C884   1.384       .  A
C883       Br890   1.924       .  S
C884        C885   1.404       .  A
C884        H889   1.080       .  S
C885        C886   1.408   1_556  A
C886       Br887   1.921       .  S
C891        C892   1.413       .  A
C891        C896   1.403       .  A
C891        H898   1.084       .  S
C892        C893   1.412       .  A
C893        C894   1.414       .  A
C893       Br900   1.916       .  S
C894        C895   1.415       .  A
C894        H899   1.083       .  S
C895        C896   1.413       .  A
C896       Br897   1.921       .  S
C901        C902   1.395       .  A
C901        C906   1.406       .  A
C901        H908   1.083       .  S
C902        C903   1.428       .  A
C903        C904   1.415       .  A
C903       Br910   1.924       .  S
C904        C905   1.408       .  A
C904        H909   1.081       .  S
C905        C906   1.424       .  A
C906       Br907   1.891       .  S
C911        C912   1.394       .  A
C911        C916   1.382       .  A
C911        H918   1.084       .  S
C912        C913   1.406   1_554  A
C913        C914   1.392       .  A
C913       Br920   1.920   1_455  S
C914        C915   1.399   1_556  A
C914        H919   1.083       .  S
C915        C916   1.413       .  A
C916       Br917   1.927       .  S
C921        C922   1.422       .  A
C921        C926   1.403       .  A
C921        H928   1.083       .  S
C922        C923   1.414       .  A
C923        C924   1.408       .  A
C923       Br930   1.918       .  S
C924        C925   1.410       .  A
C924        H929   1.080       .  S
C925        C926   1.406       .  A
C926       Br927   1.921       .  S
C931        C932   1.405       .  A
C931        C936   1.401       .  A
C931        H938   1.085       .  S
C932        C933   1.409       .  A
C933        C934   1.412       .  A
C933       Br940   1.915       .  S
C934        C935   1.415       .  A
C934        H939   1.081       .  S
C935        C936   1.423       .  A
C936       Br937   1.919       .  S
C941        C942   1.401       .  A
C941        C946   1.389       .  A
C941        H948   1.084       .  S
C942        C943   1.413       .  A
C943        C944   1.387       .  A
C943       Br950   1.926       .  S
C944        C945   1.396       .  A
C944        H949   1.084       .  S
C945        C946   1.405       .  A
C946       Br947   1.921       .  S
C951        C952   1.405       .  A
C951        C956   1.417       .  A
C951        H958   1.083       .  S
C952        C953   1.413       .  A
C953        C954   1.403       .  A
C953       Br960   1.920       .  S
C954        C955   1.409       .  A
C954        H959   1.082       .  S
C955        C956   1.426       .  A
C956       Br957   1.917       .  S
C961        C962   1.402   1_565  A
C961        C966   1.396       .  A
C961        H968   1.084       .  S
C962        C963   1.404       .  A
C963        C964   1.384       .  A
C963       Br970   1.924       .  S
C964        C965   1.404       .  A
C964        H969   1.084       .  S
C965        C966   1.411   1_545  A
C966       Br967   1.919       .  S
C971        C972   1.414       .  A
C971        C976   1.407       .  A
C971        H978   1.084       .  S
C972        C973   1.407       .  A
C973        C974   1.416       .  A
C973       Br980   1.915       .  S
C974        C975   1.420       .  A
C974        H979   1.075       .  S
C975        C976   1.416       .  A
C976       Br977   1.905       .  S
C981        C982   1.402       .  A
C981        C986   1.408       .  A
C981        H988   1.083       .  S
C982        C983   1.411       .  A
C983        C984   1.403       .  A
C983       Br990   1.919       .  S
C984        C985   1.407       .  A
C984        H989   1.083       .  S
C985        C986   1.419       .  A
C986       Br987   1.918       .  S
C991        C992   1.396   1_554  A
C991        C996   1.381       .  A
C991        H998   1.085       .  S
C992        C993   1.407       .  A
C993        C994   1.401       .  A
C993      Br1000   1.918       .  S
C994        C995   1.405       .  A
C994        H999   1.083       .  S
C995        C996   1.407   1_556  A
C996       Br997   1.919       .  S
C1001      C1002   1.412       .  A
C1001      C1006   1.408       .  A
C1001      H1008   1.081       .  S
C1002      C1003   1.424       .  A
C1003      C1004   1.405       .  A
C1003     Br1010   1.917       .  S
C1004      C1005   1.401       .  A
C1004      H1009   1.084       .  S
C1005      C1006   1.409       .  A
C1006     Br1007   1.916       .  S
C1011      C1012   1.403       .  A
C1011      C1016   1.415       .  A
C1011      H1018   1.083       .  S
C1012      C1013   1.416       .  A
C1013      C1014   1.403       .  A
C1013     Br1020   1.921       .  S
C1014      C1015   1.405       .  A
C1014      H1019   1.081       .  S
C1015      C1016   1.428       .  A
C1016     Br1017   1.918       .  S
C1021      C1022   1.423       .  A
C1021      C1026   1.401       .  A
C1021      H1028   1.082       .  S
C1022      C1023   1.414       .  A
C1023      C1024   1.415       .  A
C1023     Br1030   1.916       .  S
C1024      C1025   1.414       .  A
C1024      H1029   1.082       .  S
C1025      C1026   1.402       .  A
C1026     Br1027   1.920       .  S
C1031      C1032   1.399       .  A
C1031      C1036   1.394       .  A
C1031      H1038   1.083       .  S
C1032      C1033   1.407       .  A
C1033      C1034   1.382       .  A
C1033     Br1040   1.923       .  S
C1034      C1035   1.394       .  A
C1034      H1039   1.085       .  S
C1035      C1036   1.404       .  A
C1036     Br1037   1.917       .  S
C1041      C1042   1.409       .  A
C1041      C1046   1.405       .  A
C1041      H1048   1.082       .  S
C1042      C1043   1.423       .  A
C1043      C1044   1.411       .  A
C1043     Br1050   1.920       .  S
C1044      C1045   1.404       .  A
C1044      H1049   1.083       .  S
C1045      C1046   1.409       .  A
C1046     Br1047   1.917       .  S
C1051      C1052   1.405       .  A
C1051      C1056   1.414       .  A
C1051      H1058   1.083       .  S
C1052      C1053   1.412       .  A
C1053      C1054   1.404       .  A
C1053     Br1060   1.920       .  S
C1054      C1055   1.409       .  A
C1054      H1059   1.082       .  S
C1055      C1056   1.425       .  A
C1056     Br1057   1.919       .  S
C1061      C1062   1.401       .  A
C1061      C1066   1.386       .  A
C1061      H1068   1.084       .  S
C1062      C1063   1.414       .  A
C1063      C1064   1.390       .  A
C1063     Br1070   1.918       .  S
C1064      C1065   1.397       .  A
C1064      H1069   1.084       .  S
C1065      C1066   1.407       .  A
C1066     Br1067   1.923       .  S
C1071      C1072   1.402       .  A
C1071      C1076   1.409       .  A
C1071      H1078   1.083       .  S
C1072      C1073   1.411       .  A
C1073      C1074   1.408       .  A
C1073     Br1080   1.917       .  S
C1074      C1075   1.409       .  A
C1074      H1079   1.081       .  S
C1075      C1076   1.425       .  A
C1076     Br1077   1.920       .  S
C1081      C1082   1.401       .  A
C1081      C1086   1.409       .  A
C1081      H1088   1.084       .  S
C1082      C1083   1.405       .  A
C1083      C1084   1.408       .  A
C1083     Br1090   1.916       .  S
C1084      C1085   1.419       .  A
C1084      H1089   1.081       .  S
C1085      C1086   1.433       .  A
C1086     Br1087   1.919       .  S
C1091      C1092   1.405       .  A
C1091      C1096   1.391       .  A
C1091      H1098   1.084       .  S
C1092      C1093   1.405       .  A
C1093      C1094   1.393       .  A
C1093     Br1100   1.921       .  S
C1094      C1095   1.403       .  A
C1094      H1099   1.084       .  S
C1095      C1096   1.402       .  A
C1096     Br1097   1.920       .  S
