geometry optimzed in LAMMPS
_audit_creation_date              2020-11-30 
_audit_creation_method            'lammps2cif' 
_symmetry_space_group_name_H-M    'P1' 
_symmetry_Int_Tables_number       1 
_symmetry_cell_setting            triclinic 
loop_ 
_symmetry_equiv_pos_as_xyz 
  x,y,z 
_cell_length_a                    26.37112122 
_cell_length_b                    26.355579023390955 
_cell_length_c                    26.43369724884516 
_cell_angle_alpha                 89.99677553994071 
_cell_angle_beta                  90.00515546540738 
_cell_angle_gamma                 90.00989950625929 
loop_ 
_atom_site_label 
_atom_site_type_symbol 
_atom_site_fract_x 
_atom_site_fract_y 
_atom_site_fract_z 
_atom_site_charge 
Zn1        Zn  0.95610051  0.95733266  0.04295327     1.49700
Zn2        Zn  0.04268201  0.04195416  0.04320620     1.49400
Zn3        Zn  0.04272258  0.95710663  0.95730245     1.49100
Zn4        Zn  0.95689975  0.04228626  0.95690094     1.49500
O5          O  0.99956003  0.99964166  0.00012064    -1.84700
O6          O  0.96961673  0.96970175  0.11695500    -0.75300
O7          O  0.11695264  0.02791980  0.03140441    -0.75100
O8          O  0.03020624  0.88317900  0.97156132    -0.74600
O9          O  0.02909295  0.02923149  0.11687403    -0.75300
O10         O  0.96885149  0.88311238  0.02917010    -0.74900
O11         O  0.11696526  0.97167448  0.96879080    -0.75500
O12         O  0.97113424  0.03000635  0.88326378    -0.74900
O13         O  0.02992180  0.11608158  0.02977455    -0.75700
O14         O  0.02888682  0.96883936  0.88340326    -0.75000
O15         O  0.96982209  0.11633377  0.97087275    -0.75500
O16         O  0.88245206  0.02807879  0.96784489    -0.75400
O17         O  0.88191060  0.97195906  0.03063041    -0.75200
C18         C  0.99943183  0.99944488  0.14054823     0.76600
C19         C  0.14053825  0.99988532  0.00003101     0.77100
C20         C  0.99959505  0.85946279  0.00039094     0.76000
C21         C  0.00002918  0.99939499  0.85971063     0.76400
C22         C  0.99992952  0.13989335  0.00037728     0.77500
C23         C  0.85861757  0.00005212  0.99905373     0.76600
Zn24       Zn  0.95826284  0.95731542  0.45705937     1.49700
Zn25       Zn  0.04322278  0.04312094  0.45664430     1.49400
Zn26       Zn  0.95808981  0.04299014  0.54345869     1.49100
Zn27       Zn  0.04361765  0.95769833  0.54353409     1.49500
O28         O  0.00081883  0.00029752  0.50018652    -1.84700
O29         O  0.97089647  0.97026626  0.38324086    -0.75300
O30         O  0.02853071  0.11748905  0.46835546    -0.75100
O31         O  0.88381201  0.02838328  0.53141096    -0.74600
O32         O  0.03063075  0.02944172  0.38286226    -0.75300
O33         O  0.88398262  0.97084812  0.46978911    -0.74900
O34         O  0.97140876  0.11734166  0.53031535    -0.75500
O35         O  0.03021090  0.97029867  0.61728921    -0.74900
O36         O  0.11752310  0.02991921  0.46966049    -0.75700
O37         O  0.97143951  0.03043000  0.61730269    -0.75000
O38         O  0.11782533  0.97235340  0.53127933    -0.75500
O39         O  0.03016890  0.88323115  0.53103880    -0.75400
O40         O  0.97260368  0.88306395  0.46948800    -0.75200
C41         C  0.00071570  0.99973942  0.35940948     0.76600
C42         C  0.99970757  0.14096528  0.49914151     0.77100
C43         C  0.86037411  0.99943835  0.50068966     0.76000
C44         C  0.00076539  0.00028827  0.64092899     0.76400
C45         C  0.14120052  0.00136239  0.50056062     0.77500
C46         C  0.00145520  0.85960403  0.50025637     0.76600
Zn47       Zn  0.95696936  0.54201566  0.04258597     1.49700
Zn48       Zn  0.04328952  0.54219628  0.95658221     1.49400
Zn49       Zn  0.04369692  0.45767305  0.04318704     1.49100
Zn50       Zn  0.95756448  0.45696372  0.95685871     1.49500
O51         O  0.00042638  0.49968309  0.99984380    -1.84700
O52         O  0.97109132  0.61604326  0.03011677    -0.75300
O53         O  0.11731460  0.52988839  0.96975119    -0.75100
O54         O  0.03172525  0.47240406  0.11737801    -0.74600
O55         O  0.02934423  0.61628076  0.96938503    -0.75300
O56         O  0.96796499  0.52756109  0.11689466    -0.74900
O57         O  0.11777921  0.47038180  0.02911504    -0.75500
O58         O  0.97193693  0.38312969  0.96965080    -0.74900
O59         O  0.03158154  0.52781117  0.88252581    -0.75700
O60         O  0.02983624  0.38332639  0.03074195    -0.75000
O61         O  0.96904119  0.47127597  0.88269176    -0.75500
O62         O  0.88347554  0.46857991  0.97057649    -0.75400
O63         O  0.88308518  0.52999682  0.02795701    -0.75200
C64         C  0.00019425  0.63984160  0.99982481     0.76600
C65         C  0.14124278  0.50016120  0.99923297     0.77100
C66         C  0.99970637  0.50003895  0.14066836     0.76000
C67         C  0.00088724  0.35954302  0.00023874     0.76400
C68         C  0.00030173  0.49949293  0.85911682     0.77500
C69         C  0.85961064  0.49926417  0.99911525     0.76600
Zn70       Zn  0.95622144  0.45826812  0.45660053     1.49700
Zn71       Zn  0.04156450  0.45692276  0.54317733     1.49400
Zn72       Zn  0.04228091  0.54265059  0.45686393     1.49100
Zn73       Zn  0.95732279  0.54318116  0.54392116     1.49500
O74         O  0.99932070  0.50027927  0.50012925    -1.84700
O75         O  0.97116719  0.38360538  0.46700026    -0.75300
O76         O  0.11556261  0.46842276  0.52903629    -0.75100
O77         O  0.03146819  0.52771982  0.38262806    -0.74600
O78         O  0.02588863  0.38295645  0.53111810    -0.75300
O79         O  0.96657543  0.47397546  0.38247641    -0.74900
O80         O  0.11616469  0.53016855  0.47185989    -0.75500
O81         O  0.97296754  0.61743914  0.53259285    -0.74900
O82         O  0.03108834  0.47131374  0.61739525    -0.75700
O83         O  0.02739245  0.61707486  0.46822730    -0.75000
O84         O  0.96865976  0.52787772  0.61785577    -0.75500
O85         O  0.88308353  0.53159626  0.53016351    -0.75400
O86         O  0.88251593  0.47064851  0.47212171    -0.75200
C87         C  0.99847389  0.35974374  0.49888343     0.76600
C88         C  0.13952543  0.49919124  0.50061642     0.77100
C89         C  0.99899362  0.50094206  0.35901397     0.76000
C90         C  0.00032604  0.64080691  0.50039790     0.76400
C91         C  0.99996807  0.49949644  0.64111775     0.77500
C92         C  0.85913505  0.50113115  0.50136814     0.76600
Zn93       Zn  0.45665044  0.95764163  0.04349938     1.49700
Zn94       Zn  0.45687287  0.04279837  0.95653246     1.49400
Zn95       Zn  0.54249843  0.04251633  0.04305248     1.49100
Zn96       Zn  0.54197708  0.95716890  0.95670253     1.49500
O97         O  0.49944727  0.00002773  0.99993370    -1.84700
O98         O  0.38244709  0.97139018  0.03056047    -0.75300
O99         O  0.47055900  0.11706825  0.96975266    -0.75100
O100        O  0.53033606  0.02915367  0.11681736    -0.74600
O101        O  0.38256345  0.02878394  0.96876235    -0.75300
O102        O  0.46906355  0.97157127  0.11722788    -0.74900
O103        O  0.52801694  0.11683614  0.03142096    -0.75500
O104        O  0.61639258  0.97172812  0.96793067    -0.74900
O105        O  0.46985365  0.02979417  0.88262124    -0.75700
O106        O  0.61665293  0.02892086  0.02985565    -0.75000
O107        O  0.52804203  0.96910229  0.88296189    -0.75500
O108        O  0.52871241  0.88300728  0.97046945    -0.75400
O109        O  0.47105420  0.88314441  0.03194974    -0.75200
C110        C  0.35903562  0.00008212  0.99961354     0.76600
C111        C  0.49906197  0.14050079  0.00090184     0.77100
C112        C  0.49972904  0.00051579  0.14064483     0.76000
C113        C  0.64002946  0.00045328  0.99868420     0.76400
C114        C  0.49884556  0.99920103  0.85914717     0.77500
C115        C  0.50011824  0.85952521  0.00147856     0.76600
Zn116      Zn  0.45801124  0.04244746  0.54305431     1.49700
Zn117      Zn  0.45690368  0.95861704  0.45646234     1.49400
Zn118      Zn  0.54440603  0.04219116  0.45703734     1.49100
Zn119      Zn  0.54337508  0.95683989  0.54251396     1.49500
O120        O  0.50073091  0.00000405  0.49976987    -1.84700
O121        O  0.38356688  0.02874679  0.53190753    -0.75300
O122        O  0.47014240  0.97209098  0.38291442    -0.75100
O123        O  0.53195389  0.11629038  0.47114151    -0.74600
O124        O  0.38285366  0.97337018  0.46851452    -0.75300
O125        O  0.47109005  0.11638947  0.52928793    -0.74900
O126        O  0.53088674  0.03031380  0.38301890    -0.75500
O127        O  0.61792943  0.97124094  0.53184954    -0.74900
O128        O  0.46922927  0.88417495  0.46888088    -0.75700
O129        O  0.61852057  0.02727492  0.46898963    -0.75000
O130        O  0.53055250  0.88315528  0.52657036    -0.75500
O131        O  0.52887027  0.96790573  0.61661265    -0.75400
O132        O  0.47167868  0.02960858  0.61663300    -0.75200
C133        C  0.35968983  0.00123898  0.50031313     0.76600
C134        C  0.50037199  0.00137357  0.35935269     0.77100
C135        C  0.50153362  0.14000862  0.50018858     0.76000
C136        C  0.64177331  0.99917007  0.50055382     0.76400
C137        C  0.49994501  0.85999337  0.49723022     0.77500
C138        C  0.50004263  0.99856515  0.64026043     0.76600
Zn139      Zn  0.45942659  0.54353382  0.95626462     1.49700
Zn140      Zn  0.54195397  0.45544349  0.95744225     1.49400
Zn141      Zn  0.54361401  0.54234733  0.04336811     1.49100
Zn142      Zn  0.45741157  0.45834042  0.04396208     1.49500
O143        O  0.50057607  0.49994190  0.00018689    -1.84700
O144        O  0.47450839  0.53137950  0.88236788    -0.75300
O145        O  0.61639044  0.46756787  0.97091329    -0.75100
O146        O  0.52849358  0.61696549  0.03328639    -0.74600
O147        O  0.52919946  0.46728913  0.88302251    -0.75300
O148        O  0.47345957  0.61754740  0.96952179    -0.74900
O149        O  0.61702496  0.53032529  0.02713019    -0.75500
O150        O  0.46804244  0.47421841  0.11782869    -0.74900
O151        O  0.52650302  0.38194948  0.97067633    -0.75700
O152        O  0.53384951  0.52682122  0.11760601    -0.75000
O153        O  0.47115359  0.38332517  0.03413731    -0.75500
O154        O  0.38410777  0.47138924  0.02842808    -0.75400
O155        O  0.38469909  0.53030682  0.96823830    -0.75200
C156        C  0.50217636  0.49936632  0.85917898     0.76600
C157        C  0.64033452  0.49901905  0.99872383     0.77100
C158        C  0.50086582  0.64079028  0.00169435     0.76000
C159        C  0.50097115  0.50057760  0.14123783     0.76400
C160        C  0.49855277  0.35912326  0.00263118     0.77500
C161        C  0.36074464  0.50073790  0.99806239     0.76600
Zn162      Zn  0.45569411  0.54152539  0.45692055     1.49700
Zn163      Zn  0.45759852  0.45649016  0.54367974     1.49400
Zn164      Zn  0.54291648  0.45802640  0.45722728     1.49100
Zn165      Zn  0.54121476  0.54377147  0.54293061     1.49500
O166        O  0.49932035  0.49992277  0.50020502    -1.84700
O167        O  0.38233263  0.52798038  0.47149862    -0.75300
O168        O  0.47050841  0.38292201  0.52897772    -0.75100
O169        O  0.53213222  0.47298614  0.38304726    -0.74600
O170        O  0.38291908  0.46972936  0.53219987    -0.75300
O171        O  0.46731939  0.52685227  0.38285225    -0.74900
O172        O  0.52950715  0.38354041  0.46905470    -0.75500
O173        O  0.61567660  0.53056159  0.53140005    -0.74900
O174        O  0.47328376  0.46761335  0.61774142    -0.75700
O175        O  0.61638740  0.47092217  0.47213387    -0.75000
O176        O  0.52696832  0.53263572  0.61717240    -0.75500
O177        O  0.52837397  0.61717037  0.52738425    -0.75400
O178        O  0.46858232  0.61625133  0.46825368    -0.75200
C179        C  0.35894905  0.49885642  0.50202377     0.76600
C180        C  0.49999744  0.35954609  0.49881239     0.77100
C181        C  0.49989883  0.50004657  0.35942823     0.76000
C182        C  0.63970928  0.50068902  0.50207933     0.76400
C183        C  0.50051577  0.50001759  0.64097509     0.77500
C184        C  0.49869335  0.64039811  0.49727501     0.76600
C185        C  0.50255604  0.54545618  0.77667840    -0.13900
C186        C  0.50273747  0.49942773  0.80340436     0.08200
C187        C  0.50275325  0.45353622  0.77643130    -0.13900
C188        C  0.50123316  0.45370561  0.72350618    -0.13900
C189        C  0.50152672  0.49976017  0.69677125     0.08200
C190        C  0.50286650  0.54561511  0.72376416    -0.13900
H191        H  0.50279799  0.58127178  0.79677572     0.12200
H192        H  0.50277339  0.41761089  0.79633867     0.12200
H193        H  0.50054156  0.41789440  0.70341341     0.12200
H194        H  0.50307910  0.58155841  0.70389632     0.12200
C195        C  0.45479059  0.50134144  0.22363060    -0.13900
C196        C  0.50084856  0.50074982  0.19700823     0.08200
C197        C  0.54665013  0.50010470  0.22407913    -0.13900
C198        C  0.54634739  0.49901351  0.27700846    -0.13900
C199        C  0.50027924  0.50036461  0.30363319     0.08200
C200        C  0.45452664  0.50205368  0.27653088    -0.13900
H201        H  0.41904049  0.50205679  0.20346377     0.12200
H202        H  0.58259146  0.49947281  0.20425693     0.12200
H203        H  0.58208267  0.49794032  0.29718227     0.12200
H204        H  0.41856813  0.50297874  0.29630843     0.12200
C205        C  0.46415002  0.77690918  0.46744177    -0.13900
C206        C  0.50001284  0.80380725  0.49629111     0.08200
C207        C  0.53581081  0.77646844  0.52468949    -0.13900
C208        C  0.53546511  0.72351144  0.52470429    -0.13900
C209        C  0.49933637  0.69656773  0.49629249     0.08200
C210        C  0.46382272  0.72384313  0.46743495    -0.10700
H211        H  0.43604814  0.79683761  0.44513183     0.12200
H212        H  0.56412070  0.79597612  0.54711272     0.12200
H213        H  0.56354674  0.70368642  0.54713391     0.12200
H214        H  0.43548829  0.70421504  0.44514500     0.12200
C215        C  0.53348237  0.27632023  0.46726098    -0.13900
C216        C  0.50019313  0.30337681  0.49880161     0.08200
C217        C  0.46747498  0.27622684  0.53091219    -0.13900
C218        C  0.46802690  0.22324915  0.53146379    -0.13900
C219        C  0.50131377  0.19617670  0.49992133     0.08200
C220        C  0.53405864  0.22331192  0.46783692    -0.13900
H221        H  0.55924801  0.29608372  0.44216911     0.12200
H222        H  0.44138789  0.29589331  0.55574625     0.12200
H223        H  0.44229263  0.20352717  0.55662499     0.12200
H224        H  0.56016658  0.20361003  0.44305914     0.12200
C225        C  0.50450769  0.77658682  0.95619361    -0.13900
C226        C  0.50051744  0.80357379  0.00180734     0.08200
C227        C  0.49683094  0.77668003  0.04754004    -0.13900
C228        C  0.49793460  0.72357476  0.04766541    -0.13900
C229        C  0.50086428  0.69667219  0.00193641     0.08200
C230        C  0.50374850  0.72354583  0.95619422    -0.13900
H231        H  0.50724460  0.79657102  0.92049005     0.12200
H232        H  0.49393496  0.79677218  0.08316518     0.12200
H233        H  0.49554271  0.70347700  0.08333038     0.12200
H234        H  0.50625666  0.70344725  0.92053619     0.12200
C235        C  0.50166762  0.27608328  0.04806908    -0.13900
C236        C  0.49782517  0.30329279  0.00261222     0.08200
C237        C  0.49414445  0.27678641  0.95671719    -0.13900
C238        C  0.49358896  0.22376039  0.95628574    -0.13900
C239        C  0.49853211  0.19644087  0.00159795     0.08200
C240        C  0.50294714  0.22299229  0.04748517    -0.13900
H241        H  0.50478902  0.29592285  0.08381992     0.12200
H242        H  0.49103662  0.29717335  0.92126636     0.12200
H243        H  0.49030224  0.20406302  0.92047204     0.12200
H244        H  0.50660399  0.20263891  0.08289569     0.12200
C245        C  0.53151773  0.96621051  0.77641445    -0.13900
C246        C  0.49877510  0.99866028  0.80315133     0.08200
C247        C  0.46618711  0.03073755  0.77584385    -0.13900
C248        C  0.46653005  0.03056964  0.72300845    -0.13900
C249        C  0.49944709  0.99830304  0.69626147     0.08200
C250        C  0.53184845  0.96603007  0.72356347    -0.13900
H251        H  0.55709991  0.94100863  0.79630971     0.12200
H252        H  0.44042211  0.05611426  0.79527305     0.12200
H253        H  0.44098898  0.05582888  0.70313183     0.12200
H254        H  0.55766341  0.94071885  0.70411835     0.12200
C255        C  0.46238512  0.97504321  0.27661982    -0.13900
C256        C  0.50003785  0.00157136  0.30340100     0.08200
C257        C  0.53746346  0.02795401  0.27619908    -0.13900
C258        C  0.53735135  0.02762713  0.22335608    -0.13900
C259        C  0.49979221  0.00094333  0.19658949     0.08200
C260        C  0.46226689  0.97472474  0.22380010    -0.13900
H261        H  0.43286321  0.95455073  0.29646710     0.12200
H262        H  0.56708889  0.04860905  0.29572541     0.12200
H263        H  0.56688175  0.04808558  0.20348635     0.12200
H264        H  0.43265199  0.95403056  0.20429730     0.12200
C265        C  0.77582850  0.46987603  0.46830521    -0.13900
C266        C  0.80299425  0.50106124  0.50183867     0.08200
C267        C  0.77597598  0.53204222  0.53573036    -0.13900
C268        C  0.72296254  0.53183677  0.53601482    -0.13900
C269        C  0.69584273  0.50066812  0.50239595     0.08200
C270        C  0.72290201  0.46968404  0.46857647    -0.13900
H271        H  0.79544599  0.44562556  0.44164737     0.12200
H272        H  0.79577104  0.55645156  0.56212367     0.12200
H273        H  0.70325125  0.55613738  0.56255779     0.12200
H274        H  0.70320002  0.44531111  0.44208006     0.12200
C275        C  0.27545593  0.46770877  0.53540385    -0.13900
C276        C  0.30280020  0.49889615  0.50200868     0.08200
C277        C  0.27595309  0.53007098  0.46815076    -0.13900
C278        C  0.22302195  0.53014534  0.46772531    -0.13900
C279        C  0.19565164  0.49898518  0.50108816     0.08200
C280        C  0.22244948  0.46773426  0.53493028    -0.13900
H281        H  0.29498238  0.44323625  0.56192952     0.12200
H282        H  0.29582538  0.55447752  0.44181636     0.12200
H283        H  0.20356621  0.55458602  0.44111482     0.12200
H284        H  0.20248397  0.44332434  0.56119266     0.12200
C285        C  0.77638170  0.53821961  0.02284077    -0.13900
C286        C  0.80352521  0.49924655  0.99874250     0.08200
C287        C  0.77655995  0.46030125  0.97431362    -0.13900
C288        C  0.72356887  0.46026909  0.97411755    -0.13900
C289        C  0.69643622  0.49920020  0.99832474     0.08200
C290        C  0.72343691  0.53820933  0.02261746    -0.13900
H291        H  0.79604838  0.56892518  0.04173512     0.12200
H292        H  0.79640032  0.42960120  0.95560892     0.12200
H293        H  0.70387234  0.42953878  0.95530945     0.12200
H294        H  0.70366285  0.56889639  0.04140614     0.12200
C295        C  0.27771853  0.47079429  0.03307932    -0.13900
C296        C  0.30457881  0.50046828  0.99790037     0.08200
C297        C  0.27722535  0.52997609  0.96303622    -0.13900
C298        C  0.22421009  0.52986289  0.96343176    -0.13900
C299        C  0.19739357  0.50023793  0.99869621     0.08200
C300        C  0.22477219  0.47067288  0.03346371    -0.13900
H301        H  0.29759500  0.44771809  0.06057442     0.12200
H302        H  0.29675403  0.55317782  0.93539915     0.12200
H303        H  0.20424575  0.55296851  0.93602072     0.12200
H304        H  0.20530673  0.44750825  0.06118459     0.12200
C305        C  0.95431730  0.49832814  0.77661109    -0.13900
C306        C  0.00027610  0.49937550  0.80337911     0.08200
C307        C  0.04618545  0.50031588  0.77649548    -0.13900
C308        C  0.04612518  0.49931579  0.72357778    -0.13900
C309        C  0.00013468  0.49927689  0.69683337     0.08200
C310        C  0.95423940  0.49921350  0.72371200    -0.13900
H311        H  0.91850250  0.49776805  0.79665764     0.12200
H312        H  0.08204765  0.50094451  0.79646326     0.12200
H313        H  0.08193136  0.49954507  0.70350185     0.12200
H314        H  0.91837202  0.49900039  0.70374211     0.12200
C315        C  0.95344077  0.50165866  0.22321712    -0.13900
C316        C  0.99945456  0.50028722  0.19650193     0.08200
C317        C  0.04526802  0.49931440  0.22355318    -0.13900
C318        C  0.04510112  0.50057334  0.27647578    -0.13900
C319        C  0.99909205  0.50096280  0.30319670     0.08200
C320        C  0.95324688  0.50106817  0.27616957    -0.13900
H321        H  0.91766396  0.50227621  0.20309847     0.12200
H322        H  0.08118690  0.49847096  0.20370326     0.12200
H323        H  0.08088840  0.50027975  0.29658702     0.12200
H324        H  0.91733148  0.50153176  0.29604595     0.12200
C325        C  0.00028104  0.77674295  0.45450740    -0.13900
C326        C  0.00146639  0.80368287  0.50030305     0.08200
C327        C  0.00230055  0.77679251  0.54614020    -0.13900
C328        C  0.00098141  0.72371772  0.54618752    -0.13900
C329        C  0.00070038  0.69675615  0.50037457     0.08200
C330        C  0.00083186  0.72366182  0.45453020    -0.13900
H331        H  0.99976344  0.79679687  0.41874183     0.12200
H332        H  0.00299259  0.79688673  0.58187879     0.12200
H333        H  0.00106528  0.70368091  0.58196585     0.12200
H334        H  0.00043358  0.70358735  0.41877714     0.12200
C335        C  0.99686502  0.22388938  0.54458206    -0.13900
C336        C  0.99918206  0.19690475  0.49886414     0.08200
C337        C  0.00102515  0.22377862  0.45301687    -0.13900
C338        C  0.99967952  0.27687744  0.45290358    -0.13900
C339        C  0.99835857  0.30382335  0.49870122     0.08200
C340        C  0.99738272  0.27694083  0.54453032    -0.13900
H341        H  0.99561709  0.20389416  0.58036162     0.12200
H342        H  0.00265821  0.20366409  0.41732185     0.12200
H343        H  0.00068282  0.29693425  0.41715004     0.12200
H344        H  0.99622638  0.29703138  0.58025972     0.12200
C345        C  0.77760764  0.99745237  0.45496189    -0.13900
C346        C  0.80448981  0.99910565  0.50076884     0.08200
C347        C  0.77757224  0.00054330  0.54657337    -0.13900
C348        C  0.72451431  0.99950556  0.54656973    -0.13900
C349        C  0.69765298  0.99892463  0.50071860     0.08200
C350        C  0.72457791  0.99830467  0.45491688    -0.13900
H351        H  0.79766858  0.99648828  0.41921822     0.12200
H352        H  0.79762281  0.00163053  0.58232120     0.12200
H353        H  0.70441986  0.00015474  0.58230059     0.12200
H354        H  0.70453935  0.99765526  0.41915051     0.12200
C355        C  0.27710176  0.99891908  0.54627492    -0.13900
C356        C  0.30388446  0.00167224  0.50048414     0.08200
C357        C  0.27697284  0.00464395  0.45478666    -0.13900
C358        C  0.22395502  0.00561084  0.45491260    -0.13900
C359        C  0.19709708  0.00175310  0.50061423     0.08200
C360        C  0.22406052  0.99802489  0.54627822    -0.13900
H361        H  0.29724810  0.99645039  0.58190108     0.12200
H362        H  0.29701461  0.00700090  0.41909602     0.12200
H363        H  0.20389100  0.00835381  0.41925946     0.12200
H364        H  0.20406728  0.99521004  0.58196240     0.12200
C365        C  0.96767419  0.72296166  0.03259302    -0.13900
C366        C  0.00008318  0.69602863  0.00000816     0.08200
C367        C  0.03233557  0.72332935  0.96759023    -0.13900
C368        C  0.03220762  0.77633331  0.96777838    -0.13900
C369        C  0.99977395  0.80327169  0.00033748     0.08200
C370        C  0.96750178  0.77597346  0.03273652    -0.13900
H371        H  0.94233194  0.70309876  0.05803474     0.12200
H372        H  0.05776482  0.70376431  0.94201170     0.12200
H373        H  0.05752405  0.79618756  0.94230172     0.12200
H374        H  0.94206397  0.79554835  0.05829791     0.12200
C375        C  0.03077634  0.22309062  0.03464139    -0.13900
C376        C  0.00013746  0.19608409  0.00043734     0.08200
C377        C  0.96978755  0.22331389  0.96618966    -0.13900
C378        C  0.97009648  0.27631499  0.96611208    -0.13900
C379        C  0.00073194  0.30333989  0.00031108     0.08200
C380        C  0.03105385  0.27611474  0.03459328    -0.13900
H381        H  0.05454958  0.20327341  0.06158128     0.12200
H382        H  0.94581537  0.20369126  0.93927816     0.12200
H383        H  0.94630134  0.29609814  0.93916682     0.12200
H384        H  0.05502166  0.29575649  0.06149075     0.12200
C385        C  0.77587835  0.00277871  0.95292379    -0.13900
C386        C  0.80269981  0.00023205  0.99876888     0.08200
C387        C  0.77567608  0.99786361  0.04446026    -0.13900
C388        C  0.72266515  0.99891915  0.04438666    -0.13900
C389        C  0.69586914  0.00049512  0.99855159     0.08200
C390        C  0.72280659  0.00195875  0.95277795    -0.13900
H391        H  0.79600147  0.00446928  0.91723877     0.12200
H392        H  0.79561633  0.99607776  0.08024432     0.12200
H393        H  0.70252911  0.99757077  0.08007337     0.12200
H394        H  0.70276786  0.00334201  0.91703585     0.12200
C395        C  0.27634777  0.99547456  0.95410341    -0.13900
C396        C  0.30326195  0.00016467  0.99964086     0.08200
C397        C  0.27653618  0.00490635  0.04527835    -0.13900
C398        C  0.22351045  0.00577074  0.04530853    -0.13900
C399        C  0.19647188  0.00008042  0.99987955     0.08200
C400        C  0.22331224  0.99451982  0.95431488    -0.13900
H401        H  0.29639587  0.99163407  0.91854839     0.12200
H402        H  0.29673432  0.00876949  0.08075028     0.12200
H403        H  0.20359986  0.00995978  0.08090483     0.12200
H404        H  0.20323523  0.99027747  0.91881547     0.12200
C405        C  0.97189944  0.03583534  0.72395783    -0.13900
C406        C  0.00054997  0.00000527  0.69689949     0.08200
C407        C  0.02888928  0.96381308  0.72384844    -0.13900
C408        C  0.02865869  0.96352798  0.77668960    -0.13900
C409        C  0.00010153  0.99944844  0.80374161     0.08200
C410        C  0.97168384  0.03556433  0.77678393    -0.13900
H411        H  0.94972363  0.06427650  0.70433257     0.12200
H412        H  0.05119604  0.93554936  0.70412289     0.12200
H413        H  0.05082144  0.93508582  0.79632523     0.12200
H414        H  0.94935711  0.06382365  0.79648830     0.12200
C415        C  0.96694425  0.96793910  0.27664905    -0.13900
C416        C  0.00049138  0.99952769  0.30342186     0.08200
C417        C  0.03369246  0.03102449  0.27616164    -0.13900
C418        C  0.03331782  0.03097965  0.22333021    -0.13900
C419        C  0.99974089  0.99943084  0.19654534     0.08200
C420        C  0.96657240  0.96788967  0.22380167    -0.13900
H421        H  0.94084415  0.94324173  0.29651093     0.12200
H422        H  0.06003615  0.05578488  0.29562503     0.12200
H423        H  0.05941409  0.05569539  0.20349025     0.12200
H424        H  0.94022322  0.94315172  0.20432445     0.12200
loop_ 
_geom_bond_atom_site_label_1 
_geom_bond_atom_site_label_2 
_geom_bond_distance 
_geom_bond_site_symmetry_2 
_ccdc_geom_bond_type 
Zn1           O5   1.959       .  S
Zn1           O6   2.015       .  S
Zn1          O10   2.018       .  S
Zn1          O17   2.021       .  S
Zn2           O5   1.958   1_445  S
Zn2           O7   2.018       .  S
Zn2           O9   2.008       .  S
Zn2          O13   2.014       .  S
Zn3           O5   1.958   1_456  S
Zn3           O8   2.012       .  S
Zn3          O11   2.018       .  S
Zn3          O14   2.011       .  S
Zn4           O5   1.958   1_546  S
Zn4          O12   2.009       .  S
Zn4          O15   2.015       .  S
Zn4          O16   2.019       .  S
O6           C18   1.273       .  A
O7           C19   1.273   1_545  A
O8           C20   1.274   1_456  A
O9           C18   1.273   1_445  A
O10          C20   1.275       .  A
O11          C19   1.273   1_556  A
O12          C21   1.273   1_645  A
O13          C22   1.274   1_455  A
O14          C21   1.273       .  A
O15          C22   1.274   1_556  A
O16          C23   1.273       .  A
O17          C23   1.274   1_564  A
C18         C419   1.480       .  S
C19         C399   1.475   1_564  S
C20         C369   1.481       .  S
C21         C409   1.479       .  S
C22         C376   1.481   1_655  S
C23         C386   1.475       .  S
Zn24         O28   1.960   1_665  S
Zn24         O29   2.009       .  S
Zn24         O33   2.019       .  S
Zn24         O40   2.020       .  S
Zn25         O28   1.962       .  S
Zn25         O30   2.022       .  S
Zn25         O32   2.011       .  S
Zn25         O36   2.020       .  S
Zn26         O28   1.961   1_655  S
Zn26         O31   2.021       .  S
Zn26         O34   2.021       .  S
Zn26         O37   2.011       .  S
Zn27         O28   1.961   1_565  S
Zn27         O35   2.009       .  S
Zn27         O38   2.021       .  S
Zn27         O39   2.022       .  S
O29          C41   1.272   1_655  A
O30          C42   1.274   1_455  A
O31          C43   1.274   1_545  A
O32          C41   1.272   1_545  A
O33          C43   1.274       .  A
O34          C42   1.274       .  A
O35          C44   1.272   1_565  A
O36          C45   1.274       .  A
O37          C44   1.273   1_655  A
O38          C45   1.274   1_565  A
O39          C46   1.274       .  A
O40          C46   1.274   1_655  A
C41         C416   1.480       .  S
C42         C336   1.474       .  S
C43         C346   1.474       .  S
C44         C406   1.480       .  S
C45         C359   1.474       .  S
C46         C326   1.474       .  S
Zn47         O51   1.958   1_654  S
Zn47         O52   2.013       .  S
Zn47         O56   2.022       .  S
Zn47         O63   2.011       .  S
Zn48         O51   1.960       .  S
Zn48         O53   2.009       .  S
Zn48         O55   2.016       .  S
Zn48         O59   2.018       .  S
Zn49         O51   1.960   1_554  S
Zn49         O54   2.024       .  S
Zn49         O57   2.017       .  S
Zn49         O60   2.020       .  S
Zn50         O51   1.959   1_655  S
Zn50         O58   2.011       .  S
Zn50         O61   2.019       .  S
Zn50         O62   2.011       .  S
O52          C64   1.274   1_654  A
O53          C65   1.273       .  A
O54          C66   1.274   1_455  A
O55          C64   1.274       .  A
O56          C66   1.273       .  A
O57          C65   1.274   1_554  A
O58          C67   1.274   1_656  A
O59          C68   1.273       .  A
O60          C67   1.275       .  A
O61          C68   1.273   1_655  A
O62          C69   1.273       .  A
O63          C69   1.273   1_554  A
C64         C366   1.481   1_556  S
C65         C299   1.481       .  S
C66         C316   1.476       .  S
C67         C379   1.481       .  S
C68         C306   1.473       .  S
C69         C286   1.479       .  S
Zn70         O74   1.960       .  S
Zn70         O75   2.026       .  S
Zn70         O79   2.021       .  S
Zn70         O86   2.013       .  S
Zn71         O74   1.960   1_455  S
Zn71         O76   2.010       .  S
Zn71         O78   2.018       .  S
Zn71         O82   2.017       .  S
Zn72         O74   1.959   1_455  S
Zn72         O77   2.022       .  S
Zn72         O80   2.015       .  S
Zn72         O83   2.023       .  S
Zn73         O74   1.961       .  S
Zn73         O81   2.022       .  S
Zn73         O84   2.018       .  S
Zn73         O85   2.014       .  S
O75          C87   1.274       .  A
O76          C88   1.273       .  A
O77          C89   1.273   1_455  A
O78          C87   1.274   1_455  A
O79          C89   1.273       .  A
O80          C88   1.274       .  A
O81          C90   1.274   1_655  A
O82          C91   1.272   1_455  A
O83          C90   1.274       .  A
O84          C91   1.273       .  A
O85          C92   1.274       .  A
O86          C92   1.274       .  A
C87         C339   1.474       .  S
C88         C279   1.480       .  S
C89         C319   1.475       .  S
C90         C329   1.475       .  S
C91         C309   1.473   1_655  S
C92         C266   1.481       .  S
Zn93         O97   1.962   1_564  S
Zn93         O98   2.019       .  S
Zn93        O102   2.010       .  S
Zn93        O109   2.023       .  S
Zn94         O97   1.961       .  S
Zn94         O99   2.021       .  S
Zn94        O101   2.020       .  S
Zn94        O105   2.013       .  S
Zn95         O97   1.960   1_554  S
Zn95        O100   2.007       .  S
Zn95        O103   2.019       .  S
Zn95        O106   2.019       .  S
Zn96         O97   1.960   1_565  S
Zn96        O104   2.021       .  S
Zn96        O107   2.008       .  S
Zn96        O108   2.019       .  S
O98         C110   1.274   1_564  A
O99         C111   1.274   1_556  A
O100        C112   1.272       .  A
O101        C110   1.274       .  A
O102        C112   1.272   1_565  A
O103        C111   1.274       .  A
O104        C113   1.274   1_565  A
O105        C114   1.273   1_545  A
O106        C113   1.274   1_554  A
O107        C114   1.272       .  A
O108        C115   1.274   1_556  A
O109        C115   1.274       .  A
C110        C396   1.471       .  S
C111        C239   1.475       .  S
C112        C259   1.479       .  S
C113        C389   1.473       .  S
C114        C246   1.480       .  S
C115        C226   1.475       .  S
Zn116       O120   1.957       .  S
Zn116       O121   2.018       .  S
Zn116       O125   2.012       .  S
Zn116       O132   2.007       .  S
Zn117       O120   1.958   1_565  S
Zn117       O122   2.007       .  S
Zn117       O124   2.017       .  S
Zn117       O128   2.016       .  S
Zn118       O120   1.959       .  S
Zn118       O123   2.015       .  S
Zn118       O126   2.013       .  S
Zn118       O129   2.019       .  S
Zn119       O120   1.958   1_565  S
Zn119       O127   2.022       .  S
Zn119       O130   2.016       .  S
Zn119       O131   2.017       .  S
O121        C133   1.273       .  A
O122        C134   1.272   1_565  A
O123        C135   1.274       .  A
O124        C133   1.273   1_565  A
O125        C135   1.274       .  A
O126        C134   1.273       .  A
O127        C136   1.273       .  A
O128        C137   1.274       .  A
O129        C136   1.273   1_545  A
O130        C137   1.275       .  A
O131        C138   1.274       .  A
O132        C138   1.272   1_545  A
C133        C356   1.472       .  S
C134        C256   1.479       .  S
C135        C219   1.480       .  S
C136        C349   1.474       .  S
C137        C206   1.481       .  S
C138        C249   1.480       .  S
Zn139       O143   1.961   1_556  S
Zn139       O144   2.019       .  S
Zn139       O148   2.016       .  S
Zn139       O155   2.026       .  S
Zn140       O143   1.961   1_556  S
Zn140       O145   2.020       .  S
Zn140       O147   2.020       .  S
Zn140       O151   2.010       .  S
Zn141       O143   1.959       .  S
Zn141       O146   2.024       .  S
Zn141       O149   2.008       .  S
Zn141       O152   2.021       .  S
Zn142       O143   1.959       .  S
Zn142       O150   2.016       .  S
Zn142       O153   2.027       .  S
Zn142       O154   2.006       .  S
O144        C156   1.273       .  A
O145        C157   1.275       .  A
O146        C158   1.274       .  A
O147        C156   1.273       .  A
O148        C158   1.273   1_556  A
O149        C157   1.274   1_554  A
O150        C159   1.273       .  A
O151        C160   1.272   1_556  A
O152        C159   1.273       .  A
O153        C160   1.274       .  A
O154        C161   1.274   1_554  A
O155        C161   1.276       .  A
C156        C186   1.474       .  S
C157        C289   1.480       .  S
C158        C229   1.473       .  S
C159        C196   1.474       .  S
C160        C236   1.472       .  S
C161        C296   1.481       .  S
Zn162       O166   1.958       .  S
Zn162       O167   2.005       .  S
Zn162       O171   2.019       .  S
Zn162       O178   2.021       .  S
Zn163       O166   1.960       .  S
Zn163       O168   2.007       .  S
Zn163       O170   2.023       .  S
Zn163       O174   2.022       .  S
Zn164       O166   1.958       .  S
Zn164       O169   2.020       .  S
Zn164       O172   2.019       .  S
Zn164       O175   2.006       .  S
Zn165       O166   1.957       .  S
Zn165       O173   2.018       .  S
Zn165       O176   2.020       .  S
Zn165       O177   2.006       .  S
O167        C179   1.273       .  A
O168        C180   1.273       .  A
O169        C181   1.273       .  A
O170        C179   1.275       .  A
O171        C181   1.273       .  A
O172        C180   1.274       .  A
O173        C182   1.274       .  A
O174        C183   1.274       .  A
O175        C182   1.273       .  A
O176        C183   1.273       .  A
O177        C184   1.273       .  A
O178        C184   1.274       .  A
C179        C276   1.481       .  S
C180        C216   1.480       .  S
C181        C199   1.475       .  S
C182        C269   1.480       .  S
C183        C189   1.475       .  S
C184        C209   1.481       .  S
C185        C186   1.404       .  A
C185        C190   1.399       .  A
C185        H191   1.083       .  S
C186        C187   1.404       .  A
C187        C188   1.400       .  A
C187        H192   1.083       .  S
C188        C189   1.405       .  A
C188        H193   1.083       .  S
C189        C190   1.404       .  A
C190        H194   1.083       .  S
C195        C196   1.404       .  A
C195        C200   1.398       .  A
C195        H201   1.083       .  S
C196        C197   1.404       .  A
C197        C198   1.399       .  A
C197        H202   1.083       .  S
C198        C199   1.405       .  A
C198        H203   1.083       .  S
C199        C200   1.404       .  A
C200        H204   1.083       .  S
C205        C206   1.406       .  A
C205        C210   1.399       .  A
C205        H211   1.083       .  S
C206        C207   1.405       .  A
C207        C208   1.396       .  A
C207        H212   1.083       .  S
C208        C209   1.406       .  A
C208        H213   1.083       .  S
C209        C210   1.406       .  A
C210        H214   1.083       .  S
C215        C216   1.405       .  A
C215        C220   1.397       .  A
C215        H221   1.083       .  S
C216        C217   1.406       .  A
C217        C218   1.396       .  A
C217        H222   1.083       .  S
C218        C219   1.405       .  A
C218        H223   1.083       .  S
C219        C220   1.406       .  A
C220        H224   1.083       .  S
C225        C226   1.404   1_556  A
C225        C230   1.398       .  A
C225        H231   1.083       .  S
C226        C227   1.405       .  A
C227        C228   1.400       .  A
C227        H232   1.083       .  S
C228        C229   1.404       .  A
C228        H233   1.083       .  S
C229        C230   1.403   1_554  A
C230        H234   1.083       .  S
C235        C236   1.403       .  A
C235        C240   1.400       .  A
C235        H241   1.083       .  S
C236        C237   1.403   1_554  A
C237        C238   1.398       .  A
C237        H242   1.083       .  S
C238        C239   1.404   1_556  A
C238        H243   1.083       .  S
C239        C240   1.405       .  A
C240        H244   1.083       .  S
C245        C246   1.406       .  A
C245        C250   1.397       .  A
C245        H251   1.083       .  S
C246        C247   1.405   1_565  A
C247        C248   1.397       .  A
C247        H252   1.083       .  S
C248        C249   1.406   1_545  A
C248        H253   1.083       .  S
C249        C250   1.405       .  A
C250        H254   1.083       .  S
C255        C256   1.406   1_565  A
C255        C260   1.396       .  A
C255        H261   1.083       .  S
C256        C257   1.405       .  A
C257        C258   1.397       .  A
C257        H262   1.083       .  S
C258        C259   1.406       .  A
C258        H263   1.083       .  S
C259        C260   1.405   1_545  A
C260        H264   1.083       .  S
C265        C266   1.405       .  A
C265        C270   1.396       .  A
C265        H271   1.083       .  S
C266        C267   1.406       .  A
C267        C268   1.398       .  A
C267        H272   1.083       .  S
C268        C269   1.406       .  A
C268        H273   1.083       .  S
C269        C270   1.406       .  A
C270        H274   1.083       .  S
C275        C276   1.405       .  A
C275        C280   1.398       .  A
C275        H281   1.083       .  S
C276        C277   1.406       .  A
C277        C278   1.396       .  A
C277        H282   1.083       .  S
C278        C279   1.405       .  A
C278        H283   1.083       .  S
C279        C280   1.406       .  A
C280        H284   1.083       .  S
C285        C286   1.405   1_554  A
C285        C290   1.396       .  A
C285        H291   1.083       .  S
C286        C287   1.406       .  A
C287        C288   1.397       .  A
C287        H292   1.083       .  S
C288        C289   1.405       .  A
C288        H293   1.083       .  S
C289        C290   1.406   1_556  A
C290        H294   1.083       .  S
C295        C296   1.406   1_554  A
C295        C300   1.396       .  A
C295        H301   1.083       .  S
C296        C297   1.405       .  A
C297        C298   1.398       .  A
C297        H302   1.083       .  S
C298        C299   1.407       .  A
C298        H303   1.083       .  S
C299        C300   1.405   1_556  A
C300        H304   1.083       .  S
C305        C306   1.404   1_655  A
C305        C310   1.399       .  A
C305        H311   1.083       .  S
C306        C307   1.404       .  A
C307        C308   1.399       .  A
C307        H312   1.083       .  S
C308        C309   1.404       .  A
C308        H313   1.083       .  S
C309        C310   1.404   1_455  A
C310        H314   1.083       .  S
C315        C316   1.404       .  A
C315        C320   1.400       .  A
C315        H321   1.083       .  S
C316        C317   1.404   1_655  A
C317        C318   1.399       .  A
C317        H322   1.083       .  S
C318        C319   1.404   1_455  A
C318        H323   1.083       .  S
C319        C320   1.404       .  A
C320        H324   1.083       .  S
C325        C326   1.404       .  A
C325        C330   1.399       .  A
C325        H331   1.083   1_455  S
C326        C327   1.404       .  A
C327        C328   1.399       .  A
C327        H332   1.083       .  S
C328        C329   1.404       .  A
C328        H333   1.083       .  S
C329        C330   1.404       .  A
C330        H334   1.083       .  S
C335        C336   1.404       .  A
C335        C340   1.398       .  A
C335        H341   1.083       .  S
C336        C337   1.405   1_655  A
C337        C338   1.400   1_455  A
C337        H342   1.083       .  S
C338        C339   1.404       .  A
C338        H343   1.083   1_655  S
C339        C340   1.404       .  A
C340        H344   1.083       .  S
C345        C346   1.404       .  A
C345        C350   1.399       .  A
C345        H351   1.083       .  S
C346        C347   1.404   1_565  A
C347        C348   1.399   1_545  A
C347        H352   1.083       .  S
C348        C349   1.404       .  A
C348        H353   1.083   1_565  S
C349        C350   1.404       .  A
C350        H354   1.083       .  S
C355        C356   1.403   1_565  A
C355        C360   1.399       .  A
C355        H361   1.083       .  S
C356        C357   1.403       .  A
C357        C358   1.398       .  A
C357        H362   1.083       .  S
C358        C359   1.404       .  A
C358        H363   1.083       .  S
C359        C360   1.404   1_545  A
C360        H364   1.083       .  S
C365        C366   1.406   1_655  A
C365        C370   1.397       .  A
C365        H371   1.083       .  S
C366        C367   1.405   1_554  A
C367        C368   1.397       .  A
C367        H372   1.083       .  S
C368        C369   1.406   1_456  A
C368        H373   1.083       .  S
C369        C370   1.405       .  A
C370        H374   1.083       .  S
C375        C376   1.406       .  A
C375        C380   1.397       .  A
C375        H381   1.083       .  S
C376        C377   1.405   1_454  A
C377        C378   1.397       .  A
C377        H382   1.083       .  S
C378        C379   1.406   1_656  A
C378        H383   1.083       .  S
C379        C380   1.406       .  A
C380        H384   1.083       .  S
C385        C386   1.405       .  A
C385        C390   1.400       .  A
C385        H391   1.083       .  S
C386        C387   1.404   1_546  A
C387        C388   1.398       .  A
C387        H392   1.083       .  S
C388        C389   1.403   1_564  A
C388        H393   1.083       .  S
C389        C390   1.404       .  A
C390        H394   1.083       .  S
C395        C396   1.403   1_565  A
C395        C400   1.399       .  A
C395        H401   1.083       .  S
C396        C397   1.403   1_556  A
C397        C398   1.399       .  A
C397        H402   1.083       .  S
C398        C399   1.405   1_554  A
C398        H403   1.083       .  S
C399        C400   1.405   1_545  A
C400        H404   1.083       .  S
C405        C406   1.405   1_655  A
C405        C410   1.396       .  A
C405        H411   1.083       .  S
C406        C407   1.406   1_545  A
C407        C408   1.397       .  A
C407        H412   1.083       .  S
C408        C409   1.405       .  A
C408        H413   1.083       .  S
C409        C410   1.406   1_465  A
C410        H414   1.083       .  S
C415        C416   1.406   1_655  A
C415        C420   1.397       .  A
C415        H421   1.083       .  S
C416        C417   1.405   1_565  A
C417        C418   1.397       .  A
C417        H422   1.083       .  S
C418        C419   1.406   1_445  A
C418        H423   1.083       .  S
C419        C420   1.405       .  A
C420        H424   1.083       .  S
