geometry optimzed in LAMMPS
_audit_creation_date              2020-11-30 
_audit_creation_method            'lammps2cif' 
_symmetry_space_group_name_H-M    'P1' 
_symmetry_Int_Tables_number       1 
_symmetry_cell_setting            triclinic 
loop_ 
_symmetry_equiv_pos_as_xyz 
  x,y,z 
_cell_length_a                    34.26730021 
_cell_length_b                    34.29769355465446 
_cell_length_c                    34.449539423484 
_cell_angle_alpha                 89.66089648047965 
_cell_angle_beta                  89.97887179440652 
_cell_angle_gamma                 88.2060943642366 
loop_ 
_atom_site_label 
_atom_site_type_symbol 
_atom_site_fract_x 
_atom_site_fract_y 
_atom_site_fract_z 
_atom_site_charge 
O1          O  0.97813443  0.91271032  0.01508698    -0.77500
C2          C  0.00873619  0.99875728  0.10034775     0.83600
O3          O  0.91128372  0.02585261  0.97023493    -0.78600
O4          O  0.02527071  0.09041726  0.01364766    -0.80100
O5          O  0.09513627  0.97288142  0.96614847    -0.79900
O6          O  0.02412147  0.90867742  0.96971710    -0.78500
Zn7        Zn  0.97123849  0.96986118  0.02592144     1.55700
O8          O  0.09609565  0.01947621  0.01098360    -0.79900
Cd9        Cd  0.03614548  0.96551205  0.95767285     1.59700
Cd10       Cd  0.96940182  0.03423881  0.95759595     1.59600
O11         O  0.02490044  0.97458979  0.89963012    -0.79900
O12         O  0.00333469  0.00022034  0.99155500    -1.90400
Cd13       Cd  0.03818351  0.03228252  0.02373253     1.59900
O14         O  0.97934198  0.02220385  0.89927040    -0.79900
O15         O  0.03123119  0.02185205  0.08275320    -0.78500
C16         C  0.89480328  0.00612064  0.99672336     0.84000
C17         C  0.00023711  0.89261466  0.99267106     0.83700
O18         O  0.98530461  0.97787954  0.08154401    -0.77500
C19         C  0.11362085  0.99525906  0.98849329     0.84500
O20         O  0.91447024  0.98450725  0.02015290    -0.77600
C21         C  0.00192075  0.99803176  0.88136967     0.84600
C22         C  0.00168726  0.10960398  0.99154364     0.85000
O23         O  0.97924457  0.09253452  0.96801714    -0.80000
N24         N  0.99302005  0.95583122  0.53430606    -0.35600
N25         N  0.99580470  0.04246107  0.53010730    -0.56200
N26         N  0.99062074  0.03918671  0.44698259    -0.35600
N27         N  0.99236859  0.95227795  0.45127934    -0.56200
C28         C  0.00190395  0.96438098  0.57140462     0.28000
C29         C  0.99872715  0.91679614  0.52970840     0.28000
C30         C  0.99768312  0.07762311  0.45141540     0.28000
C31         C  0.99841613  0.02984521  0.40967690     0.28000
C32         C  0.99260366  0.03746025  0.56891154     0.36600
C33         C  0.99044199  0.08119937  0.52309011     0.36600
C34         C  0.98755036  0.91381411  0.45849870     0.36600
C35         C  0.98814439  0.95747193  0.41259866     0.36600
C36         C  0.01276324  0.93019004  0.59093100    -0.20900
C37         C  0.01066784  0.90024821  0.56470394    -0.20900
C38         C  0.00943202  0.09307379  0.41620981    -0.20900
C39         C  0.01000356  0.06298872  0.38993678    -0.20900
C40         C  0.98571141  0.07325668  0.58663256    -0.21900
C41         C  0.98418966  0.10087831  0.55763937    -0.21900
C42         C  0.98055851  0.89445850  0.42416342    -0.21900
C43         C  0.98085833  0.92205434  0.39513757    -0.21900
C44         C  0.99804766  0.00156017  0.58908149    -0.17300
C45         C  0.99239525  0.89545389  0.49520528    -0.17300
C46         C  0.99373530  0.99287943  0.39219096    -0.17300
C47         C  0.99338987  0.09934285  0.48618407    -0.17300
H48         H  0.02097517  0.92698831  0.62114094     0.15600
H49         H  0.01712162  0.86974889  0.57084619     0.15600
H50         H  0.01709024  0.12287196  0.41012434     0.15600
H51         H  0.01796186  0.06533877  0.35962306     0.15600
H52         H  0.98238810  0.07896997  0.61734148     0.13900
H53         H  0.97939457  0.13193655  0.56163379     0.13900
H54         H  0.97641982  0.86357234  0.42028569     0.13900
H55         H  0.97685382  0.91650265  0.36452181     0.13900
H56         H  0.97955530  0.97558381  0.51423643     0.27200
H57         H  0.97730213  0.02071362  0.46753742     0.27200
N58         N  0.46254495  0.99389637  0.95978773    -0.35600
N59         N  0.46212887  0.00275988  0.04545702    -0.56200
N60         N  0.54439072  0.00953683  0.04372595    -0.35600
N61         N  0.54473674  0.00355461  0.95864484    -0.56200
C62         C  0.42497238  0.00352085  0.96812689     0.28000
C63         C  0.46871927  0.00363923  0.92208745     0.28000
C64         C  0.53678562  0.02036953  0.08075669     0.28000
C65         C  0.58049496  0.02143605  0.03491839     0.28000
C66         C  0.42592696  0.98998160  0.03894900     0.36600
C67         C  0.46952718  0.99722494  0.08370281     0.36600
C68         C  0.53930493  0.99015505  0.92219660     0.36600
C69         C  0.58302698  0.99787196  0.96684876     0.36600
C70         C  0.40700153  0.01989202  0.93559415    -0.20900
C71         C  0.43486210  0.02063439  0.90671674    -0.20900
C72         C  0.56826477  0.03995110  0.09546603    -0.20900
C73         C  0.59605690  0.04027663  0.06663470    -0.20900
C74         C  0.41001740  0.97624165  0.07323800    -0.21900
C75         C  0.43785275  0.98056692  0.10161972    -0.21900
C76         C  0.57431488  0.97529368  0.90744813    -0.21900
C77         C  0.60212564  0.98069198  0.93553624    -0.21900
C78         C  0.40595707  0.99467370  0.00332982    -0.17300
C79         C  0.50377220  0.99528809  0.90135626    -0.17300
C80         C  0.60124616  0.01095083  0.00098612    -0.17300
C81         C  0.50374566  0.00951505  0.10243225    -0.17300
H82         H  0.37692268  0.03015667  0.93295767     0.15600
H83         H  0.43049235  0.03190391  0.87759130     0.15600
H84         H  0.57143448  0.05161897  0.12437706     0.15600
H85         H  0.62493793  0.05182852  0.06930300     0.15600
H86         H  0.38117897  0.96491683  0.07743416     0.13900
H87         H  0.43485870  0.97295382  0.13198021     0.13900
H88         H  0.57949747  0.96262267  0.87915199     0.13900
H89         H  0.63292563  0.97318184  0.93300085     0.13900
H90         H  0.48137399  0.97739104  0.97761487     0.27200
H91         H  0.52858080  0.99012873  0.02734036     0.27200
N92         N  0.04085600  0.54197342  0.00457877    -0.35600
N93         N  0.04130777  0.45879123  0.01008316    -0.56200
N94         N  0.95491802  0.46102227  0.00754773    -0.35600
N95         N  0.95454281  0.54421769  0.99727664    -0.56200
C96         C  0.07945683  0.53394707  0.99893708     0.28000
C97         C  0.03356031  0.57895896  0.99232730     0.28000
C98         C  0.96273245  0.42245919  0.00293207     0.28000
C99         C  0.91692276  0.46790746  0.99785986     0.28000
C100        C  0.07987495  0.46368380  0.01631308     0.36600
C101        C  0.03452523  0.42095773  0.01775891     0.36600
C102        C  0.96120015  0.58248985  0.00195061     0.36600
C103        C  0.91585736  0.53992459  0.00329592     0.36600
C104        C  0.09684553  0.56637842  0.98317135    -0.20900
C105        C  0.06791794  0.59479065  0.97904926    -0.20900
C106        C  0.92914074  0.40454777  0.99060864    -0.20900
C107        C  0.90023191  0.43320265  0.98759269    -0.20900
C108        C  0.09768094  0.42877660  0.02802475    -0.21900
C109        C  0.06900365  0.40168772  0.02884126    -0.21900
C110        C  0.92656999  0.60260463  0.01068365    -0.21900
C111        C  0.89778426  0.57565678  0.01122013    -0.21900
C112        C  0.09962295  0.49855259  0.00873358    -0.17300
C113        C  0.99755169  0.59995739  0.99592671    -0.17300
C114        C  0.89647616  0.50433595  0.00019380    -0.17300
C115        C  0.99869480  0.40257132  0.01129515    -0.17300
H116        H  0.12725999  0.56936570  0.97557210     0.15600
H117        H  0.07182187  0.62398219  0.96789077     0.15600
H118        H  0.92564279  0.37387868  0.98478369     0.15600
H119        H  0.87030979  0.42895066  0.97894271     0.15600
H120        H  0.12823885  0.42321767  0.03460107     0.13900
H121        H  0.07320372  0.37108674  0.03606985     0.13900
H122        H  0.92238584  0.63357200  0.01572235     0.13900
H123        H  0.86711379  0.58166527  0.01685605     0.13900
H124        H  0.02143746  0.52516581  0.02003627     0.27200
H125        H  0.97334823  0.48053570  0.02054608     0.27200
N126        N  0.95216029  0.45518757  0.49924456    -0.35600
N127        N  0.03552916  0.45258259  0.50345447    -0.56200
N128        N  0.03407427  0.53888217  0.50153796    -0.35600
N129        N  0.95098469  0.54146984  0.50114886    -0.56200
C130        C  0.95896732  0.41681157  0.50736036     0.28000
C131        C  0.91433937  0.46358937  0.50764054     0.28000
C132        C  0.07138196  0.53017522  0.51173479     0.28000
C133        C  0.02704058  0.57708606  0.50976570     0.28000
C134        C  0.02993287  0.41471518  0.49481043     0.36600
C135        C  0.07342489  0.45920799  0.49603620     0.36600
C136        C  0.91303673  0.53535249  0.49364558     0.36600
C137        C  0.95659689  0.57988734  0.49466441     0.36600
C138        C  0.92503867  0.40059749  0.52091380    -0.20900
C139        C  0.89695275  0.43018213  0.52146642    -0.20900
C140        C  0.08821739  0.56315733  0.52678629    -0.20900
C141        C  0.06025997  0.59279883  0.52537259    -0.20900
C142        C  0.06453475  0.39702736  0.48233052    -0.21900
C143        C  0.09206787  0.42535125  0.48277312    -0.21900
C144        C  0.89437712  0.57016652  0.48247923    -0.21900
C145        C  0.92200183  0.59840698  0.48325278    -0.21900
C146        C  0.99431824  0.39573095  0.50010822    -0.17300
C147        C  0.89431475  0.49962803  0.50003089    -0.17300
C148        C  0.99213503  0.59855164  0.50135114    -0.17300
C149        C  0.09186140  0.49464715  0.50371635    -0.17300
H150        H  0.92082143  0.37051849  0.52912610     0.15600
H151        H  0.86684464  0.42716910  0.53018243     0.15600
H152        H  0.11792290  0.56582876  0.53687136     0.15600
H153        H  0.06410440  0.62262466  0.53434557     0.15600
H154        H  0.06942833  0.36692390  0.47388704     0.13900
H155        H  0.12246572  0.42133761  0.47476824     0.13900
H156        H  0.86388465  0.57486924  0.47511130     0.13900
H157        H  0.91712129  0.62905501  0.47660572     0.13900
H158        H  0.97063539  0.47342206  0.48422497     0.27200
H159        H  0.01648938  0.52111635  0.48514162     0.27200
O160        O  0.51695802  0.59000021  0.53276548    -0.77500
C161        C  0.49056477  0.49885835  0.61578578     0.83600
O162        O  0.58380442  0.47840446  0.48094574    -0.78600
O163        O  0.47164098  0.40929764  0.53048707    -0.80100
O164        O  0.40299510  0.52715896  0.47988732    -0.79900
O165        O  0.47138156  0.59462613  0.48697628    -0.78500
Zn166      Zn  0.52599182  0.53163246  0.54161106     1.55700
O167        O  0.40110255  0.48053516  0.52544552    -0.79900
Cd168      Cd  0.46150390  0.53734496  0.47329776     1.59700
Cd169      Cd  0.52572026  0.46754298  0.47270988     1.59600
O170        O  0.47368954  0.52932126  0.41509393    -0.79900
O171        O  0.49337307  0.50163021  0.50735812    -1.90400
Cd172      Cd  0.45881369  0.46817214  0.53914900     1.59900
O173        O  0.51218385  0.47579800  0.41461744    -0.79900
O174        O  0.46625190  0.47835561  0.59763064    -0.78500
C175        C  0.60110563  0.49775870  0.50686345     0.84000
C176        C  0.49443624  0.61056107  0.51074142     0.83700
O177        O  0.51488559  0.51976829  0.59786028    -0.77500
C178        C  0.38427563  0.50413184  0.50160862     0.84500
O179        O  0.58263866  0.51795097  0.53219749    -0.77600
C180        C  0.49250043  0.50252595  0.39693173     0.84600
C181        C  0.49626812  0.39144936  0.50865333     0.85000
O182        O  0.51837996  0.40979115  0.48566473    -0.80000
N183        N  0.45492460  0.49847330  0.96438997    -0.35600
N184        N  0.54099231  0.50459812  0.96377365    -0.56200
N185        N  0.54116893  0.49958185  0.04689585    -0.35600
N186        N  0.45473345  0.49774959  0.04706828    -0.56200
C187        C  0.46126223  0.50930742  0.92725848     0.28000
C188        C  0.41603344  0.50289810  0.97106276     0.28000
C189        C  0.57911752  0.50784444  0.04036448     0.28000
C190        C  0.53296756  0.50885609  0.08422634     0.28000
C191        C  0.53421095  0.50108545  0.92532912     0.36600
C192        C  0.58001473  0.49933682  0.96890165     0.36600
C193        C  0.41711458  0.48820435  0.04142159     0.36600
C194        C  0.46224118  0.49229103  0.08517621     0.36600
C195        C  0.42599333  0.52043227  0.91000579    -0.20900
C196        C  0.39746872  0.51622482  0.93757400    -0.20900
C197        C  0.59540436  0.52184715  0.07410664    -0.20900
C198        C  0.56626026  0.52289641  0.10161907    -0.20900
C199        C  0.56916346  0.49420268  0.90584220    -0.21900
C200        C  0.59816369  0.49303523  0.93345539    -0.21900
C201        C  0.40056870  0.47672801  0.07613552    -0.21900
C202        C  0.42926771  0.47891414  0.10379950    -0.21900
C203        C  0.49721755  0.50579888  0.90727087    -0.17300
C204        C  0.39675343  0.49345825  0.00604513    -0.17300
C205        C  0.49726046  0.50232152  0.10393450    -0.17300
C206        C  0.59958701  0.50266841  0.00488464    -0.17300
H207        H  0.42115379  0.52986033  0.88030652     0.15600
H208        H  0.36655039  0.52191632  0.93316765     0.15600
H209        H  0.62509791  0.53081265  0.07836049     0.15600
H210        H  0.56943816  0.53254836  0.13126983     0.15600
H211        H  0.57336470  0.49068655  0.87490368     0.13900
H212        H  0.62907540  0.48847436  0.92801071     0.13900
H213        H  0.37078363  0.46841070  0.08117817     0.13900
H214        H  0.42591906  0.47231727  0.13435678     0.13900
H215        H  0.47528891  0.48434967  0.98230081     0.27200
H216        H  0.52310800  0.48466794  0.02831272     0.27200
N217        N  0.51689711  0.95962752  0.45735929    -0.35600
N218        N  0.51292633  0.95974299  0.54399123    -0.56200
N219        N  0.51149536  0.04141507  0.54427961    -0.35600
N220        N  0.51218203  0.04195511  0.45798899    -0.56200
C221        C  0.50212652  0.92479461  0.46678122     0.28000
C222        C  0.50506963  0.96864208  0.42071547     0.28000
C223        C  0.49970617  0.03335830  0.58094338     0.28000
C224        C  0.49634831  0.07688756  0.53454709     0.28000
C225        C  0.52300638  0.92244367  0.53546977     0.36600
C226        C  0.52312789  0.96557500  0.58149375     0.36600
C227        C  0.52581655  0.03563599  0.42161129     0.36600
C228        C  0.52088648  0.07879050  0.46723579     0.36600
C229        C  0.47988975  0.91173120  0.43610004    -0.20900
C230        C  0.48149077  0.93964451  0.40708822    -0.20900
C231        C  0.47573340  0.06369256  0.59427588    -0.20900
C232        C  0.47397395  0.09147506  0.56506950    -0.20900
C233        C  0.54050159  0.90446918  0.56745214    -0.21900
C234        C  0.54107057  0.93196248  0.59647303    -0.21900
C235        C  0.54470080  0.06827361  0.40825811    -0.21900
C236        C  0.54120181  0.09583359  0.43710453    -0.21900
C237        C  0.51139678  0.90357168  0.50111610    -0.17300
C238        C  0.51668611  0.00215769  0.39986653    -0.17300
C239        C  0.50681628  0.09783976  0.50087438    -0.17300
C240        C  0.51225798  0.99986420  0.60240334    -0.17300
H241        H  0.46441596  0.88475122  0.43466506     0.15600
H242        H  0.46708273  0.93863160  0.37918609     0.15600
H243        H  0.46157541  0.06586866  0.62229517     0.15600
H244        H  0.45867477  0.11952714  0.56639447     0.15600
H245        H  0.55096974  0.87444987  0.56984385     0.13900
H246        H  0.55247478  0.92730099  0.62546395     0.13900
H247        H  0.55857914  0.07223990  0.38035641     0.13900
H248        H  0.55165789  0.12526279  0.43576285     0.13900
H249        H  0.53734999  0.97442771  0.47365920     0.27200
H250        H  0.53282035  0.02595332  0.52851521     0.27200
C251        C  0.49018507  0.28481761  0.53932464    -0.13300
C252        C  0.50664590  0.26606271  0.50690405     0.17000
C253        C  0.52007993  0.28853391  0.47564298     0.03300
C254        C  0.51632521  0.32915902  0.47690611    -0.11900
C255        C  0.49944405  0.34824044  0.50912182    -0.02900
C256        C  0.48665927  0.32556485  0.54082205     0.02600
C257        C  0.50756744  0.22303028  0.50517902     0.09400
N258        N  0.53843466  0.27048754  0.44279413     0.65800
H259        H  0.52664622  0.34580511  0.45233155     0.18700
N260        N  0.47109575  0.34330422  0.57515474     0.76200
H261        H  0.47962243  0.26769422  0.56345913     0.10200
C262        C  0.52833696  0.20011707  0.53274491     0.03900
C263        C  0.52751438  0.15948904  0.53088500    -0.04800
C264        C  0.50573580  0.14109926  0.50221613    -0.23200
C265        C  0.48429896  0.16405629  0.47504024     0.13100
C266        C  0.48566528  0.20473072  0.47655224    -0.12400
N267        N  0.55098036  0.21768909  0.56231686     0.64800
H268        H  0.54425391  0.14212573  0.55177147     0.12700
N269        N  0.45977283  0.14658371  0.44689804     0.61500
H270        H  0.46868099  0.22217623  0.45593607     0.08800
O271        O  0.49323759  0.34848922  0.60380199    -0.40000
O272        O  0.43458787  0.34660094  0.57955088    -0.39200
O273        O  0.51986650  0.26811417  0.41131855    -0.39200
O274        O  0.57487510  0.26395382  0.44304266    -0.36900
O275        O  0.46901302  0.14773423  0.41145477    -0.37800
O276        O  0.42549345  0.13795330  0.45626782    -0.34000
O277        O  0.53871092  0.21794811  0.59685774    -0.35400
O278        O  0.58604452  0.22558175  0.55549755    -0.39600
C279        C  0.52239583  0.71560638  0.53163682    -0.13300
C280        C  0.49399078  0.73653782  0.51017682     0.17000
C281        C  0.46538167  0.71632778  0.49007660     0.03300
C282        C  0.46590294  0.67554079  0.49108324    -0.11900
C283        C  0.49458406  0.65401971  0.51217845    -0.02900
C284        C  0.52287662  0.67471759  0.53305048     0.02600
C285        C  0.49634397  0.77932180  0.50690460     0.09400
N286        N  0.43588072  0.73688693  0.46811267     0.65800
H287        H  0.44364492  0.66073699  0.47502056     0.18700
N288        N  0.55280310  0.65492483  0.55512377     0.76200
H289        H  0.54464150  0.73114445  0.54702355     0.10200
C290        C  0.47785542  0.80429538  0.53391385     0.03900
C291        C  0.48243732  0.84460132  0.53104797    -0.04800
C292        C  0.50625353  0.86054652  0.50215830    -0.23200
C293        C  0.52463281  0.83533086  0.47494684     0.13100
C294        C  0.51909560  0.79508958  0.47727314    -0.12400
N295        N  0.45528957  0.78901383  0.56502408     0.64800
H296        H  0.46784057  0.86355405  0.55192150     0.12700
N297        N  0.55039372  0.84987978  0.44598144     0.61500
H298        H  0.53372510  0.77586275  0.45666090     0.08800
O299        O  0.54680853  0.64707778  0.59041732    -0.40000
O300        O  0.58713230  0.65253758  0.54189103    -0.39200
O301        O  0.43841818  0.73823962  0.43159540    -0.39200
O302        O  0.40427949  0.74732611  0.48435843    -0.36900
O303        O  0.54241466  0.84567866  0.41052071    -0.37800
O304        O  0.58409775  0.86004551  0.45559442    -0.34000
O305        O  0.47096039  0.78347205  0.59781267    -0.35400
O306        O  0.41863403  0.78835256  0.56194433    -0.39600
C307        C  0.48916938  0.47061518  0.29179197    -0.13300
C308        C  0.49568512  0.50584328  0.27219727     0.17000
C309        C  0.49890629  0.54033567  0.29409189     0.03300
C310        C  0.49666059  0.53872592  0.33465174    -0.11900
C311        C  0.49217166  0.50313803  0.35412361    -0.02900
C312        C  0.48802486  0.46886998  0.33234244     0.02600
C313        C  0.49751098  0.50597818  0.22904522     0.09400
N314        N  0.50596375  0.57696446  0.27580798     0.65800
H315        H  0.49982948  0.56529495  0.35108825     0.18700
N316        N  0.48098702  0.43237647  0.35087441     0.76200
H317        H  0.48458118  0.44423482  0.27552363     0.10200
C318        C  0.52160214  0.47882932  0.20868156     0.03900
C319        C  0.52071479  0.47800612  0.16815580    -0.04800
C320        C  0.49708606  0.50456851  0.14706000    -0.23200
C321        C  0.47343966  0.53216051  0.16718470     0.13100
C322        C  0.47332187  0.53215851  0.20782291    -0.12400
N323        N  0.54788786  0.45247437  0.22861726     0.64800
H324        H  0.53900437  0.45673664  0.15294380     0.12700
N325        N  0.44976187  0.56058782  0.14680238     0.61500
H326        H  0.45388680  0.55250482  0.22280827     0.10800
O327        O  0.50912525  0.40846050  0.35673350    -0.40000
O328        O  0.44645788  0.42090904  0.35362818    -0.39200
O329        O  0.47912514  0.60300837  0.27490813    -0.39200
O330        O  0.54062779  0.58620081  0.26882350    -0.36900
O331        O  0.46352820  0.59344382  0.13914260    -0.37800
O332        O  0.41336321  0.55642280  0.14474522    -0.34000
O333        O  0.54070599  0.41661995  0.22977523    -0.35400
O334        O  0.58186441  0.46320229  0.23643251    -0.39600
C335        C  0.52185617  0.50560613  0.72127268    -0.13300
C336        C  0.48634935  0.50074199  0.74054111     0.17000
C337        C  0.45230572  0.49457520  0.71874137     0.03300
C338        C  0.45452697  0.49305079  0.67816165    -0.11900
C339        C  0.48998878  0.49872487  0.65873675    -0.02900
C340        C  0.52396715  0.50481353  0.68078925     0.02600
C341        C  0.48624351  0.50225877  0.78338868     0.09400
N342        N  0.41500562  0.49222394  0.73707497     0.65800
H343        H  0.42803728  0.48892435  0.66170706     0.18700
N344        N  0.56116001  0.50866925  0.66269808     0.76200
H345        H  0.54823916  0.50989872  0.73786991     0.10200
C346        C  0.48028788  0.46866016  0.80616624     0.03900
C347        C  0.48470932  0.47034929  0.84643228    -0.04800
C348        C  0.49509083  0.50500434  0.86441993    -0.23200
C349        C  0.50008058  0.53882763  0.84196690     0.13100
C350        C  0.49586971  0.53721084  0.80161980    -0.12400
N351        N  0.47135372  0.43226756  0.78884238     0.64800
H352        H  0.48023472  0.44442859  0.86382830     0.12700
N353        N  0.50852637  0.57502453  0.85995258     0.61500
H354        H  0.50041127  0.56320030  0.78435849     0.08800
O355        O  0.58371974  0.47905472  0.65972900    -0.40000
O356        O  0.57452469  0.54219442  0.65768486    -0.39200
O357        O  0.39822508  0.52303919  0.74931072    -0.39200
O358        O  0.39532389  0.46207714  0.73266504    -0.36900
O359        O  0.54329156  0.58271194  0.86826428    -0.37800
O360        O  0.48096399  0.59770448  0.87072926    -0.34000
O361        O  0.49894424  0.40976393  0.77780611    -0.35400
O362        O  0.43790429  0.41869658  0.79383286    -0.39600
C363        C  0.19934195  0.47997813  0.52784921    -0.13300
C364        C  0.21643757  0.50419720  0.49998857     0.17000
C365        C  0.19239402  0.52334882  0.47208724     0.03300
C366        C  0.15206238  0.51873385  0.47313367    -0.11900
C367        C  0.13501103  0.49565398  0.50182794    -0.02900
C368        C  0.15892787  0.47590192  0.52923330     0.02600
C369        C  0.25944417  0.50755197  0.49977884     0.09400
N370        N  0.20821051  0.54864784  0.44339222     0.65800
H371        H  0.13373695  0.53407419  0.45201792     0.18700
N372        N  0.14252562  0.45255830  0.55922711     0.76200
H373        H  0.21747680  0.46418530  0.54877175     0.10200
C374        C  0.28007229  0.51578598  0.53411913     0.03900
C375        C  0.32083402  0.51354146  0.53422660    -0.04800
C376        C  0.34156687  0.50556328  0.50006387    -0.23200
C377        C  0.32120687  0.49947509  0.46526327     0.13100
C378        C  0.28042447  0.49930953  0.46562486    -0.12400
N379        N  0.26008224  0.52802727  0.56861178     0.64800
H380        H  0.33643290  0.51936967  0.56084234     0.12700
N381        N  0.34152675  0.49228510  0.42966511     0.61500
H382        H  0.26520974  0.49198223  0.43925286     0.08800
O383        O  0.14393439  0.41588628  0.55628941    -0.40000
O384        O  0.13437051  0.46780128  0.59158596    -0.39200
O385        O  0.21021505  0.53755647  0.40856282    -0.39200
O386        O  0.21135763  0.58436184  0.45093788    -0.36900
O387        O  0.34665985  0.45770618  0.41799012    -0.37800
O388        O  0.34688863  0.52024082  0.40649018    -0.34000
O389        O  0.26298234  0.50747384  0.59903893    -0.35400
O390        O  0.24646260  0.56255709  0.57079846    -0.39600
C391        C  0.78885242  0.48038458  0.47519953    -0.13300
C392        C  0.76891244  0.50211737  0.50381960     0.17000
C393        C  0.79057620  0.52219343  0.53181102     0.03300
C394        C  0.83134199  0.52079672  0.53022022    -0.11900
C395        C  0.85104619  0.50029473  0.50070639    -0.02900
C396        C  0.82955126  0.47988537  0.47301525     0.02600
C397        C  0.72568096  0.50215244  0.50468475     0.09400
N398        N  0.77167991  0.54484525  0.56144881     0.65800
H399        H  0.84777805  0.53622068  0.55183261     0.18700
N400        N  0.84866755  0.45905796  0.44222627     0.76200
H401        H  0.77273309  0.46381131  0.45426258     0.10200
C402        C  0.70334535  0.51043364  0.47099191     0.03900
C403        C  0.66280919  0.50757329  0.47210358    -0.04800
C404        C  0.64384322  0.49783233  0.50660906    -0.23200
C405        C  0.66588679  0.48966498  0.54030887     0.13100
C406        C  0.70656862  0.49135194  0.53897837    -0.12400
N407        N  0.72121590  0.52318916  0.43583423     0.64800
H408        H  0.64591720  0.51437018  0.44619337     0.12700
N409        N  0.64749816  0.47805666  0.57557108     0.61500
H410        H  0.72330052  0.48341788  0.56465418     0.08800
O411        O  0.84751979  0.42233827  0.44118442    -0.40000
O412        O  0.86028325  0.47746896  0.41281136    -0.39200
O413        O  0.77391613  0.53357738  0.59634258    -0.39200
O414        O  0.75986043  0.57926844  0.55392906    -0.36900
O415        O  0.64097681  0.44249219  0.58141785    -0.37800
O416        O  0.64494935  0.50168713  0.60344428    -0.34000
O417        O  0.72055641  0.50180927  0.40616634    -0.35400
O418        O  0.73023812  0.55841343  0.43225992    -0.39600
C419        C  0.78929405  0.51388670  0.96943654    -0.13300
C420        C  0.76989038  0.50880939  0.00503108     0.17000
C421        C  0.79262353  0.50160026  0.03873779     0.03300
C422        C  0.83357257  0.49990815  0.03641732    -0.11900
C423        C  0.85278783  0.50517425  0.00094180    -0.02900
C424        C  0.83031003  0.51208535  0.96717967     0.02600
C425        C  0.72616474  0.50836446  0.00598023     0.09400
N426        N  0.77460015  0.49668791  0.07576069     0.65800
H427        H  0.85054954  0.49476731  0.06259032     0.18700
N428        N  0.84874506  0.51612016  0.93024993     0.76200
H429        H  0.77249959  0.51836907  0.94306390     0.10200
C430        C  0.70259689  0.53999562  0.99197250     0.03900
C431        C  0.66167065  0.53759393  0.99167893    -0.04800
C432        C  0.64334185  0.50405563  0.00515687    -0.23200
C433        C  0.66682138  0.47243231  0.01899382     0.13100
C434        C  0.70769905  0.47476833  0.01923317    -0.12400
N435        N  0.71971332  0.57514044  0.97878903     0.64800
H436        H  0.64402346  0.56219588  0.98113331     0.12700
N437        N  0.64960624  0.43717483  0.03164911     0.61500
H438        H  0.72517077  0.44976234  0.02907275     0.08800
O439        O  0.85535686  0.54968571  0.91711011    -0.40000
O440        O  0.85195121  0.48700803  0.90812157    -0.39200
O441        O  0.77390321  0.46310423  0.09085278    -0.39200
O442        O  0.76760170  0.52619790  0.09662320    -0.36900
O443        O  0.64749529  0.40905597  0.00836889    -0.37800
O444        O  0.64437998  0.43131653  0.06743820    -0.34000
O445        O  0.72026424  0.58290039  0.94294668    -0.35400
O446        O  0.72661051  0.60161492  0.00288548    -0.39600
C447        C  0.20627874  0.51759700  0.03285725    -0.13300
C448        C  0.22638002  0.49656356  0.00372694     0.17000
C449        C  0.20429811  0.47540851  0.97675671     0.03300
C450        C  0.16332566  0.47610067  0.97910599    -0.11900
C451        C  0.14342316  0.49738381  0.00807443    -0.02900
C452        C  0.16535450  0.51826288  0.03514747     0.02600
C453        C  0.27017817  0.49595578  0.00314745     0.09400
N454        N  0.22286482  0.45385682  0.94615664     0.65800
H455        H  0.14684956  0.46023362  0.95786658     0.18700
N456        N  0.14648327  0.53955822  0.06573539     0.76200
H457        H  0.22248896  0.53296111  0.05464210     0.10200
C458        C  0.29124156  0.53075435  0.00510756     0.03900
C459        C  0.33215334  0.52911982  0.00712291    -0.04800
C460        C  0.35311041  0.49338802  0.00624178    -0.23200
C461        C  0.33239076  0.45861192  0.00405455     0.13100
C462        C  0.29135005  0.46010086  0.00304788    -0.12400
N463        N  0.27164099  0.56813018  0.00371338     0.64800
H464        H  0.34781683  0.55605600  0.00833126     0.12700
N465        N  0.35264102  0.42160029  0.00268771     0.61500
H466        H  0.27600043  0.43299846  0.00276385     0.08800
O467        O  0.14682734  0.57633898  0.06561315    -0.40000
O468        O  0.13632007  0.52179049  0.09609221    -0.39200
O469        O  0.22457266  0.41708172  0.94798299    -0.39200
O470        O  0.22912900  0.47057209  0.91413509    -0.36900
O471        O  0.35773254  0.40494354  0.97044242    -0.37800
O472        O  0.35837000  0.40246016  0.03366119    -0.34000
O473        O  0.27219837  0.58992873  0.03307902    -0.35400
O474        O  0.26128449  0.58234933  0.97132241    -0.39600
C475        C  0.52113101  0.02993546  0.71003356    -0.13300
C476        C  0.50943217  0.99629034  0.72998395     0.17000
C477        C  0.49754790  0.96439769  0.70726175     0.03300
C478        C  0.49658711  0.96727125  0.66650756    -0.11900
C479        C  0.51109697  0.99971160  0.64653507    -0.02900
C480        C  0.52389391  0.03129390  0.66925532     0.02600
C481        C  0.50847623  0.99569376  0.77400038     0.09400
N482        N  0.48860404  0.92782489  0.72471909     0.65800
H483        H  0.48555236  0.94299945  0.65031953     0.18700
N484        N  0.54139540  0.06443126  0.65179696     0.76200
H485        H  0.52904209  0.05547588  0.72614139     0.10200
C486        C  0.53752896  0.01319171  0.79684603     0.03900
C487        C  0.53383924  0.01467866  0.83743903    -0.04800
C488        C  0.50419865  0.99523563  0.85730160    -0.23200
C489        C  0.47587964  0.97645194  0.83462082     0.13100
C490        C  0.47717745  0.97874712  0.79379875    -0.12400
N491        N  0.57238640  0.02748613  0.77978429     0.64800
H492        H  0.55561201  0.02994223  0.85370962     0.12700
N493        N  0.44653344  0.95340761  0.85224766     0.61500
H494        H  0.45363408  0.96634341  0.77759615     0.08800
O495        O  0.52658066  0.09808321  0.65748496    -0.40000
O496        O  0.57582537  0.06110903  0.63897900    -0.39200
O497        O  0.45474970  0.91480375  0.72121128    -0.39200
O498        O  0.51613562  0.90517440  0.73588334    -0.36900
O499        O  0.45620350  0.92091249  0.86732916    -0.37800
O500        O  0.41094904  0.96115589  0.84529832    -0.34000
O501        O  0.58095408  0.06267065  0.78449337    -0.35400
O502        O  0.59822657  0.00347352  0.76774571    -0.39600
C503        C  0.48157749  0.03155735  0.20922843    -0.13300
C504        C  0.51224027  0.01091672  0.22857561     0.17000
C505        C  0.54023209  0.99035975  0.20536437     0.03300
C506        C  0.53584679  0.98907735  0.16491272    -0.11900
C507        C  0.50590812  0.01042771  0.14592559    -0.02900
C508        C  0.47941740  0.03299448  0.16841651     0.02600
C509        C  0.51357249  0.00942576  0.27248480     0.09400
N510        N  0.57464366  0.97242732  0.22191928     0.65800
H511        H  0.55706327  0.97240790  0.14793693     0.18700
N512        N  0.45154481  0.05900907  0.15006253     0.76200
H513        H  0.45927020  0.04713415  0.22567203     0.10200
C514        C  0.50355658  0.04201385  0.29598044     0.03900
C515        C  0.50229165  0.03808641  0.33662661    -0.04800
C516        C  0.51563552  0.00370526  0.35575020    -0.23200
C517        C  0.52738951  0.97164207  0.33215106     0.13100
C518        C  0.52382477  0.97415127  0.29153411    -0.12400
N519        N  0.49726428  0.08006541  0.27951154     0.64800
H520        H  0.49204629  0.06299140  0.35334071     0.12700
N521        N  0.54495091  0.93686511  0.34844952     0.61500
H522        H  0.53025835  0.94817490  0.27480859     0.08800
O523        O  0.41545577  0.05470014  0.15503740    -0.40000
O524        O  0.46307948  0.08696699  0.12947931    -0.39200
O525        O  0.58064120  0.93609844  0.21858851    -0.39200
O526        O  0.60257940  0.99352195  0.23136248    -0.36900
O527        O  0.57892367  0.93795236  0.36243345    -0.37800
O528        O  0.53087675  0.90421990  0.34074944    -0.34000
O529        O  0.46459875  0.09755691  0.28373062    -0.35400
O530        O  0.52636730  0.09928617  0.26922655    -0.39600
C531        C  0.96098566  0.78934093  0.50051544    -0.13300
C532        C  0.99701674  0.76862137  0.50078846     0.17000
C533        C  0.03162420  0.78995966  0.49905812     0.03300
C534        C  0.02960737  0.83102026  0.49718619    -0.11900
C535        C  0.99351833  0.85163513  0.49719486    -0.02900
C536        C  0.95900226  0.83032525  0.49885011     0.02600
C537        C  0.99747626  0.72490571  0.50195738     0.09400
N538        N  0.06905122  0.77047377  0.50044495     0.65800
H539        H  0.05639035  0.84697046  0.49606791     0.18700
N540        N  0.92163742  0.84994000  0.49876607     0.76200
H541        H  0.93410549  0.77353864  0.50129448     0.10200
C542        C  0.98174691  0.70448609  0.53380492     0.03900
C543        C  0.97988009  0.66357963  0.53310496    -0.04800
C544        C  0.99301597  0.64223187  0.50078554    -0.23200
C545        C  0.00833544  0.66249029  0.46875697     0.13100
C546        C  0.01083262  0.70339493  0.46965597    -0.12400
N547        N  0.96790129  0.72495437  0.56731910     0.64800
H548        H  0.96822264  0.64835821  0.55798194     0.12700
N549        N  0.01975562  0.64188083  0.43445714     0.61500
H550        H  0.02208456  0.71854186  0.44454408     0.08800
O551        O  0.90420367  0.85599073  0.53052782    -0.40000
O552        O  0.90291722  0.85355134  0.46735260    -0.39200
O553        O  0.08915882  0.76754847  0.46985248    -0.39200
O554        O  0.08526136  0.76439447  0.53289572    -0.36900
O555        O  0.99407838  0.63190390  0.41054513    -0.37800
O556        O  0.05443525  0.62899405  0.43075593    -0.34000
O557        O  0.93175478  0.73176883  0.57151173    -0.35400
O558        O  0.99058356  0.72954254  0.59565284    -0.39600
C559        C  0.96484770  0.20704579  0.46892322    -0.13300
C560        C  0.99689768  0.22609124  0.48477752     0.17000
C561        C  0.02845086  0.20295506  0.49961813     0.03300
C562        C  0.02699451  0.16202730  0.49939848    -0.11900
C563        C  0.99460456  0.14311239  0.48432423    -0.02900
C564        C  0.96356370  0.16606087  0.46846852     0.02600
C565        C  0.99588937  0.26976093  0.48818604     0.09400
N566        N  0.06256528  0.22062465  0.51441946     0.65800
H567        H  0.05132147  0.14481877  0.51116875     0.18700
N568        N  0.92979668  0.14813611  0.45325286     0.76200
H569        H  0.93995953  0.22404548  0.45810776     0.10200
C570        C  0.98844854  0.29463717  0.45593097     0.03900
C571        C  0.98753575  0.33537209  0.46055178    -0.04800
C572        C  0.99380766  0.35224943  0.49691330    -0.23200
C573        C  0.00030819  0.32763039  0.52931112     0.13100
C574        C  0.00118892  0.28689997  0.52477952    -0.12400
N575        N  0.98285976  0.27910112  0.41803263     0.64800
H576        H  0.98247060  0.35401904  0.43543372     0.12700
N577        N  0.00566785  0.34360062  0.56706834     0.61500
H578        H  0.00556644  0.26852837  0.55018197     0.08800
O579        O  0.92349622  0.14884164  0.41716689    -0.40000
O580        O  0.90341982  0.13725196  0.47608086    -0.39200
O581        O  0.06971119  0.21919780  0.55033916    -0.39200
O582        O  0.08859845  0.23151456  0.49119962    -0.36900
O583        O  0.97646766  0.34944235  0.58883272    -0.37800
O584        O  0.03957546  0.34472892  0.58118690    -0.34000
O585        O  0.94929753  0.28093480  0.40293902    -0.35400
O586        O  0.01217857  0.27157376  0.39689799    -0.39600
C587        C  0.97925896  0.78786837  0.02113402    -0.13300
C588        C  0.00216932  0.76740046  0.99397333     0.17000
C589        C  0.02284855  0.78790774  0.96564491     0.03300
C590        C  0.02136014  0.82854402  0.96559296    -0.11900
C591        C  0.99898739  0.84950981  0.99316223    -0.02900
C592        C  0.97707064  0.82862172  0.02076014     0.02600
C593        C  0.00219486  0.72458177  0.99421785     0.09400
N594        N  0.04584191  0.76784787  0.93699462     0.65800
H595        H  0.03802546  0.84363543  0.94374561     0.18700
N596        N  0.95189237  0.84802280  0.04805999     0.76200
H597        H  0.96233558  0.77204900  0.04226196     0.10200
C598        C  0.01883621  0.70284948  0.02514067     0.03900
C599        C  0.01693669  0.66226617  0.02516917    -0.04800
C600        C  0.99856553  0.64303927  0.99472943    -0.23200
C601        C  0.98203404  0.66482234  0.96372007     0.13100
C602        C  0.98395564  0.70541816  0.96371446    -0.12400
N603        N  0.03830658  0.72159214  0.05624665     0.64800
H604        H  0.02984516  0.64559972  0.04899733     0.12700
N605        N  0.96350178  0.64611139  0.93203183     0.61500
H606        H  0.97086487  0.72211354  0.94000555     0.08800
O607        O  0.96288487  0.85165277  0.08276700    -0.40000
O608        O  0.91642894  0.85433983  0.03954615    -0.39200
O609        O  0.03296586  0.76531186  0.90281910    -0.39200
O610        O  0.08147836  0.76016808  0.94359344    -0.36900
O611        O  0.98299472  0.63812235  0.90188296    -0.37800
O612        O  0.92671841  0.64566891  0.93071752    -0.34000
O613        O  0.01997363  0.72928243  0.08717539    -0.35400
O614        O  0.07501288  0.72351935  0.05568743    -0.39600
C615        C  0.98912106  0.29568006  0.03764199    -0.13300
C616        C  0.00264722  0.27776207  0.00347544     0.17000
C617        C  0.01503468  0.30095666  0.97222703     0.03300
C618        C  0.01354488  0.34154599  0.97541063    -0.11900
C619        C  0.99979114  0.35944493  0.00941139    -0.02900
C620        C  0.98758624  0.33635512  0.04079399     0.02600
C621        C  0.00255036  0.23488518  0.00037104     0.09400
N622        N  0.03000519  0.28359888  0.93746889     0.65800
H623        H  0.02322209  0.35925501  0.95130498     0.18700
N624        N  0.97369282  0.35384825  0.07590492     0.76200
H625        H  0.97929757  0.27801690  0.06171230     0.10200
C626        C  0.02633227  0.21096308  0.02439595     0.03900
C627        C  0.02560177  0.17050513  0.02076308    -0.04800
C628        C  0.00071173  0.15288711  0.99399581    -0.23200
C629        C  0.97554408  0.17713782  0.97103761     0.13100
C630        C  0.97717840  0.21776094  0.97403842    -0.12400
N631        N  0.05154893  0.22734699  0.05256116     0.64800
H632        H  0.04474339  0.15288666  0.03928980     0.12700
N633        N  0.94708359  0.16129015  0.94578890     0.61500
H634        H  0.95782803  0.23608581  0.95636475     0.08800
O635        O  0.99629863  0.35582529  0.10467932    -0.40000
O636        O  0.93753582  0.36026053  0.08051337    -0.39200
O637        O  0.00874691  0.28280261  0.90760715    -0.39200
O638        O  0.06610896  0.27578395  0.93456907    -0.36900
O639        O  0.91308944  0.15587039  0.95841703    -0.37800
O640        O  0.95332468  0.16035869  0.90970532    -0.34000
O641        O  0.04322686  0.22469315  0.08814747    -0.35400
O642        O  0.08519355  0.23749689  0.04260634    -0.39600
C643        C  0.70574619  0.04347467  0.99482681    -0.13300
C644        C  0.72634732  0.00830894  0.00260604     0.17000
C645        C  0.70563004  0.97455578  0.01154593     0.03300
C646        C  0.66483020  0.97619857  0.01145154    -0.11900
C647        C  0.64434433  0.01103048  0.00234371    -0.02900
C648        C  0.66494823  0.04504654  0.99452415     0.02600
C649        C  0.76942263  0.00749166  0.00110031     0.09400
N650        N  0.72560389  0.93814336  0.01923482     0.65800
H651        H  0.64899680  0.95002256  0.01771161     0.18700
N652        N  0.64483145  0.08123401  0.98614392     0.76200
H653        H  0.72145326  0.06977238  0.98881146     0.10200
C654        C  0.78914196  0.01658570  0.96652305     0.03900
C655        C  0.82987525  0.01661613  0.96596110    -0.04800
C656        C  0.85169929  0.00757117  0.99947673    -0.23200
C657        C  0.83181037  0.99913215  0.03439920     0.13100
C658        C  0.79095692  0.99901323  0.03483721    -0.12400
N659        N  0.76814956  0.02466486  0.93141256     0.64800
H660        H  0.84447562  0.02295614  0.93884180     0.12700
N661        N  0.85245784  0.99249481  0.06999941     0.61500
H662        H  0.77593489  0.99300375  0.06180738     0.08800
O663        O  0.64044272  0.09198478  0.95129496    -0.40000
O664        O  0.63919638  0.10569067  0.01294616    -0.39200
O665        O  0.72783104  0.92539730  0.05362247    -0.39200
O666        O  0.73413842  0.91565672  0.99143638    -0.36900
O667        O  0.85839474  0.02081662  0.09222646    -0.37800
O668        O  0.85811079  0.95809592  0.08241300    -0.34000
O669        O  0.76300650  0.05950551  0.92010683    -0.35400
O670        O  0.76132133  0.99717406  0.90846093    -0.39600
C671        C  0.22076350  0.98000410  0.96170395    -0.13300
C672        C  0.23836984  0.98311775  0.99832051     0.17000
C673        C  0.21469392  0.98987666  0.03117548     0.03300
C674        C  0.17431201  0.99442471  0.02696916    -0.11900
C675        C  0.15659150  0.99161313  0.99046392    -0.02900
C676        C  0.18011561  0.98403197  0.95752956     0.02600
C677        C  0.28143387  0.98427980  0.00121555     0.09400
N678        N  0.23126373  0.99150891  0.06916555     0.65800
H679        H  0.15659314  0.99939022  0.05265183     0.18700
N680        N  0.16353968  0.98305760  0.91949064     0.76200
H681        H  0.23874756  0.97591778  0.93607650     0.10200
C682        C  0.30610023  0.95364808  0.98751812     0.03900
C683        C  0.34667470  0.95754874  0.98827627    -0.04800
C684        C  0.36300920  0.99143562  0.00286893    -0.23200
C685        C  0.33846268  0.02189311  0.01666747     0.13100
C686        C  0.29801719  0.01818216  0.01564547    -0.12400
N687        N  0.29042149  0.91820146  0.97363985     0.64800
H688        H  0.36556430  0.93393325  0.97784110     0.12700
N689        N  0.35425170  0.05733696  0.03033596     0.61500
H690        H  0.27939890  0.04238666  0.02518957     0.08800
O691        O  0.15844897  0.95065472  0.90340924    -0.40000
O692        O  0.16156520  0.01390650  0.89934352    -0.39200
O693        O  0.23084954  0.02345874  0.08715717    -0.39200
O694        O  0.23917470  0.96019165  0.08731010    -0.36900
O695        O  0.36227629  0.08388215  0.00638302    -0.37800
O696        O  0.35382544  0.06469250  0.06617685    -0.34000
O697        O  0.29511538  0.90873726  0.93856639    -0.35400
O698        O  0.27818927  0.89342917  0.99759467    -0.39600
C699        C  0.02162891  0.97079841  0.77562954    -0.13300
C700        C  0.00473847  0.00316950  0.75633899     0.17000
C701        C  0.98612328  0.03296715  0.77801919     0.03300
C702        C  0.98509730  0.03038599  0.81848661    -0.11900
C703        C  0.00222040  0.99820196  0.83822142    -0.02900
C704        C  0.02028820  0.96783133  0.81618908     0.02600
C705        C  0.00377497  0.00391233  0.71347873     0.09400
N706        N  0.96863162  0.06640058  0.75926253     0.65800
H707        H  0.97118515  0.05410566  0.83449030     0.18700
N708        N  0.03583032  0.93303084  0.83418378     0.76200
H709        H  0.03494815  0.94716245  0.75901807     0.10200
C710        C  0.03817361  0.00605281  0.69120011     0.03900
C711        C  0.03591018  0.00571708  0.65061251    -0.04800
C712        C  0.99975135  0.00282857  0.63201186    -0.23200
C713        C  0.96547848  0.00058237  0.65424848     0.13100
C714        C  0.96767646  0.00122177  0.69471214    -0.12400
N715        N  0.07539633  0.00910672  0.70940411     0.64800
H716        H  0.06236522  0.00747184  0.63352754     0.12700
N717        N  0.92833726  0.99728365  0.63597753     0.61500
H718        H  0.94115136  0.99899265  0.71161545     0.08800
O719        O  0.07227808  0.92841386  0.83826406    -0.40000
O720        O  0.01426919  0.90414235  0.83840635    -0.39200
O721        O  0.93202380  0.06899647  0.75543091    -0.39200
O722        O  0.98876871  0.09595212  0.75296766    -0.36900
O723        O  0.90603231  0.02705430  0.63239545    -0.37800
O724        O  0.91549071  0.96397147  0.62899890    -0.34000
O725        O  0.09800106  0.97943545  0.71178865    -0.35400
O726        O  0.08833389  0.04235900  0.71649063    -0.39600
C727        C  0.96839732  0.00045821  0.28525713    -0.13300
C728        C  0.00323731  0.98668020  0.26803850     0.17000
C729        C  0.03500117  0.97490474  0.29183517     0.03300
C730        C  0.03137517  0.97689426  0.33224929    -0.11900
C731        C  0.99654262  0.99078526  0.34931025    -0.02900
C732        C  0.96488756  0.00262994  0.32561088     0.02600
C733        C  0.00654123  0.98750458  0.22524887     0.09400
N734        N  0.07092880  0.96065772  0.27537089     0.65800
H735        H  0.05582641  0.96774848  0.35043832     0.18700
N736        N  0.92925339  0.01739305  0.34223106     0.76200
H737        H  0.94410799  0.01038996  0.26724106     0.10200
C738        C  0.98176341  0.96579588  0.20174294     0.03900
C739        C  0.98342943  0.96971552  0.16140823    -0.04800
C740        C  0.00916836  0.99551294  0.14347709    -0.23200
C741        C  0.03400167  0.01735523  0.16731500     0.13100
C742        C  0.03257537  0.01295694  0.20775344    -0.12400
N743        N  0.95469289  0.93959749  0.21840114     0.64800
H744        H  0.96398332  0.95254073  0.14414078     0.12700
N745        N  0.05991329  0.04504594  0.15131141     0.61500
H746        H  0.05108399  0.03049582  0.22569521     0.08800
O747        O  0.90169334  0.99462237  0.34843379    -0.40000
O748        O  0.92309128  0.05375452  0.34471853    -0.39200
O749        O  0.09986287  0.98250283  0.27418919    -0.39200
O750        O  0.07596702  0.92458430  0.26944453    -0.36900
O751        O  0.04954095  0.08066778  0.15028820    -0.37800
O752        O  0.09537935  0.03538980  0.14628718    -0.34000
O753        O  0.91915128  0.95001482  0.22106624    -0.35400
O754        O  0.96439589  0.90398327  0.22211666    -0.39600
loop_ 
_geom_bond_atom_site_label_1 
_geom_bond_atom_site_label_2 
_geom_bond_distance 
_geom_bond_site_symmetry_2 
_ccdc_geom_bond_type 
O1           C17   1.272   1_654  A
O1           Zn7   2.004       .  S
C2           O18   1.272   1_455  A
C2           O15   1.273   1_565  A
C2          C740   1.489       .  S
O3           C16   1.275       .  A
O3          Cd10   2.067       .  S
O4           C22   1.276   1_554  A
O4          Cd13   2.056       .  S
O5           C19   1.273       .  A
O5           Cd9   2.066       .  S
O6           C17   1.273       .  A
O6           Cd9   2.045       .  S
Zn7          O18   1.999       .  S
Zn7          O20   2.003       .  S
Zn7          O12   1.937   1_664  S
O8           C19   1.275   1_544  A
O8          Cd13   2.067       .  S
Cd9          O11   2.057       .  S
Cd9          O12   1.994   1_565  S
Cd10         O14   2.079       .  S
Cd10         O23   2.071       .  S
Cd10         O12   1.995   1_655  S
O11          C21   1.272       .  A
O12         Cd13   1.990   1_556  S
Cd13         O15   2.077       .  S
O14          C21   1.277   1_645  A
C16          O20   1.272   1_546  A
C16         C656   1.479       .  S
C17         C591   1.480   1_455  S
C19         C675   1.475       .  S
C21         C703   1.486       .  S
C22          O23   1.275   1_455  A
C22         C628   1.487       .  S
N24          C29   1.357       .  A
N24          C28   1.350   1_655  A
N24          H56   1.061       .  S
N25          C32   1.352       .  A
N25          C33   1.356       .  A
N26          C31   1.351       .  A
N26          C30   1.357       .  A
N26          H57   1.060       .  S
N27          C34   1.356       .  A
N27          C35   1.351       .  A
C28          C36   1.389       .  A
C28          C44   1.419   1_465  A
C29          C45   1.420       .  A
C29          C37   1.386   1_655  A
C30          C38   1.385   1_655  A
C30          C47   1.419       .  A
C31          C46   1.421   1_545  A
C31          C39   1.390   1_655  A
C32          C44   1.417       .  A
C32          C40   1.388       .  A
C33          C47   1.417       .  A
C33          C41   1.385       .  A
C34          C42   1.384       .  A
C34          C45   1.417       .  A
C35          C43   1.388       .  A
C35          C46   1.418       .  A
C36          C37   1.375       .  A
C36          H48   1.082       .  S
C37          H49   1.082       .  S
C38          C39   1.376       .  A
C38          H50   1.082       .  S
C39          H51   1.082       .  S
C40          C41   1.372       .  A
C40          H52   1.082       .  S
C41          H53   1.082       .  S
C42          C43   1.373       .  A
C42          H54   1.082       .  S
C43          H55   1.082       .  S
C44         C712   1.481       .  S
C45         C535   1.503       .  S
C46         C731   1.482       .  S
C47         C563   1.504       .  S
N58          C63   1.357   1_565  A
N58          C62   1.350   1_565  A
N58          H90   1.043       .  S
N59          C66   1.348   1_545  A
N59          C67   1.353   1_545  A
N60          C65   1.349       .  A
N60          C64   1.354       .  A
N60          H91   1.040   1_545  S
N61          C68   1.355   1_545  A
N61          C69   1.350   1_545  A
C62          C70   1.386       .  A
C62          C78   1.412   1_546  A
C63          C79   1.420   1_545  A
C63          C71   1.386       .  A
C64          C72   1.386       .  A
C64          C81   1.414       .  A
C65          C80   1.411       .  A
C65          C73   1.388       .  A
C66          C78   1.411       .  A
C66          C74   1.387       .  A
C67          C81   1.416   1_565  A
C67          C75   1.386       .  A
C68          C76   1.386       .  A
C68          C79   1.419       .  A
C69          C77   1.386       .  A
C69          C80   1.414   1_566  A
C70          C71   1.379       .  A
C70          H82   1.082       .  S
C71          H83   1.082       .  S
C72          C73   1.376       .  A
C72          H84   1.082       .  S
C73          H85   1.082       .  S
C74          C75   1.378       .  A
C74          H86   1.082       .  S
C75          H87   1.082       .  S
C76          C77   1.376       .  A
C76          H88   1.082       .  S
C77          H89   1.082       .  S
C78         C684   1.479       .  S
C79         C488   1.518       .  S
C80         C647   1.478       .  S
C81         C507   1.501       .  S
N92          C97   1.350   1_554  A
N92          C96   1.357   1_554  A
N92         H124   1.039       .  S
N93         C100   1.355       .  A
N93         C101   1.350       .  A
N94          C99   1.357   1_554  A
N94          C98   1.352       .  A
N94         H125   1.038       .  S
N95         C102   1.350   1_556  A
N95         C103   1.354   1_556  A
C96         C104   1.386       .  A
C96         C112   1.417   1_556  A
C97         C113   1.415   1_455  A
C97         C105   1.388       .  A
C98         C106   1.389   1_554  A
C98         C115   1.419       .  A
C99         C114   1.416   1_556  A
C99         C107   1.384       .  A
C100        C112   1.415       .  A
C100        C108   1.385       .  A
C101        C115   1.416   1_455  A
C101        C109   1.388       .  A
C102        C110   1.388       .  A
C102        C113   1.414   1_554  A
C103        C111   1.384       .  A
C103        C114   1.412       .  A
C104        C105   1.375       .  A
C104        H116   1.082       .  S
C105        H117   1.083       .  S
C106        C107   1.377       .  A
C106        H118   1.082       .  S
C107        H119   1.082       .  S
C108        C109   1.374       .  A
C108        H120   1.082       .  S
C109        H121   1.082       .  S
C110        C111   1.373       .  A
C110        H122   1.082       .  S
C111        H123   1.082       .  S
C112        C451   1.500       .  S
C113        C600   1.479       .  S
C114        C423   1.497       .  S
C115        C619   1.480       .  S
N126        C131   1.350       .  A
N126        C130   1.357       .  A
N126        H158   1.039       .  S
N127        C134   1.354       .  A
N127        C135   1.349       .  A
N128        C133   1.356       .  A
N128        C132   1.350       .  A
N128        H159   1.040       .  S
N129        C136   1.349       .  A
N129        C137   1.355       .  A
C130        C138   1.384       .  A
C130        C146   1.414       .  A
C131        C147   1.418       .  A
C131        C139   1.390       .  A
C132        C140   1.389       .  A
C132        C149   1.416       .  A
C133        C148   1.414   1_455  A
C133        C141   1.385       .  A
C134        C146   1.412   1_455  A
C134        C142   1.384       .  A
C135        C149   1.414       .  A
C135        C143   1.387       .  A
C136        C144   1.389       .  A
C136        C147   1.417       .  A
C137        C145   1.383       .  A
C137        C148   1.413       .  A
C138        C139   1.377       .  A
C138        H150   1.082       .  S
C139        H151   1.082       .  S
C140        C141   1.376       .  A
C140        H152   1.082       .  S
C141        H153   1.082       .  S
C142        C143   1.375       .  A
C142        H154   1.082       .  S
C143        H155   1.082       .  S
C144        C145   1.376       .  A
C144        H156   1.082       .  S
C145        H157   1.082       .  S
C146        C572   1.497       .  S
C147        C395   1.482       .  S
C148        C544   1.499       .  S
C149        C367   1.482       .  S
O160        C176   1.276       .  A
O160       Zn166   2.037       .  S
C161        O177   1.274       .  A
C161        O174   1.274       .  A
C161        C339   1.480       .  S
O162        C175   1.273       .  A
O162       Cd169   2.056       .  S
O163        C181   1.275       .  A
O163       Cd172   2.076       .  S
O164        C178   1.273       .  A
O164       Cd168   2.058       .  S
O165        C176   1.275       .  A
O165       Cd168   2.061       .  S
Zn166       O177   2.016       .  S
Zn166       O179   2.009       .  S
Zn166       O171   1.946       .  S
O167        C178   1.275       .  A
O167       Cd172   2.064       .  S
Cd168       O170   2.066       .  S
Cd168       O171   1.992       .  S
Cd169       O173   2.070       .  S
Cd169       O182   2.051       .  S
Cd169       O171   1.989       .  S
O170        C180   1.273       .  A
O171       Cd172   1.997       .  S
Cd172       O174   2.064       .  S
O173        C180   1.273       .  A
C175        O179   1.273       .  A
C175        C404   1.465       .  S
C176        C283   1.492       .  S
C178        C376   1.464       .  S
C180        C311   1.475       .  S
C181        O182   1.273       .  A
C181        C255   1.483       .  S
N183        C188   1.356       .  A
N183        C187   1.349       .  A
N183        H215   1.038       .  S
N184        C191   1.351       .  A
N184        C192   1.355       .  A
N185        C190   1.354       .  A
N185        C189   1.358       .  A
N185        H216   1.039       .  S
N186        C193   1.354       .  A
N186        C194   1.349       .  A
C187        C195   1.389       .  A
C187        C203   1.413       .  A
C188        C204   1.415   1_556  A
C188        C196   1.386       .  A
C189        C197   1.385       .  A
C189        C206   1.418       .  A
C190        C205   1.422       .  A
C190        C198   1.390       .  A
C191        C203   1.417       .  A
C191        C199   1.387       .  A
C192        C206   1.417   1_556  A
C192        C200   1.385       .  A
C193        C201   1.384       .  A
C193        C204   1.412       .  A
C194        C202   1.388       .  A
C194        C205   1.416       .  A
C195        C196   1.373       .  A
C195        H207   1.082       .  S
C196        H208   1.082       .  S
C197        C198   1.376       .  A
C197        H209   1.082       .  S
C198        H210   1.082       .  S
C199        C200   1.375       .  A
C199        H211   1.082       .  S
C200        H212   1.082       .  S
C201        C202   1.374       .  A
C201        H213   1.082       .  S
C202        H214   1.082       .  S
C203        C348   1.478       .  S
C204        C460   1.496       .  S
C205        C320   1.488       .  S
C206        C432   1.502       .  S
N217        C222   1.357       .  A
N217        C221   1.350       .  A
N217        H249   1.044       .  S
N218        C225   1.349       .  A
N218        C226   1.356       .  A
N219        C224   1.348       .  A
N219        C223   1.355       .  A
N219        H250   1.044       .  S
N220        C227   1.354       .  A
N220        C228   1.347       .  A
C221        C229   1.388       .  A
C221        C237   1.416       .  A
C222        C238   1.419   1_565  A
C222        C230   1.385       .  A
C223        C231   1.386       .  A
C223        C240   1.418   1_545  A
C224        C239   1.413       .  A
C224        C232   1.388       .  A
C225        C237   1.415       .  A
C225        C233   1.387       .  A
C226        C240   1.422       .  A
C226        C234   1.386       .  A
C227        C235   1.387       .  A
C227        C238   1.418       .  A
C228        C236   1.386       .  A
C228        C239   1.411       .  A
C229        C230   1.382       .  A
C229        H241   1.082       .  S
C230        H242   1.082       .  S
C231        C232   1.382       .  A
C231        H243   1.082       .  S
C232        H244   1.082       .  S
C233        C234   1.379       .  A
C233        H245   1.082       .  S
C234        H246   1.082       .  S
C235        C236   1.378       .  A
C235        H247   1.082       .  S
C236        H248   1.082       .  S
C237        C292   1.492       .  S
C238        C516   1.521       .  S
C239        C264   1.484       .  S
C240        C479   1.521       .  S
C251        C252   1.402       .  A
C251        C256   1.400       .  A
C251        H261   1.084       .  S
C252        C257   1.477       .  S
C252        C253   1.406       .  A
C253        C254   1.396       .  A
C253        N258   1.429       .  S
C254        C255   1.407       .  A
C254        H259   1.084       .  S
C255        C256   1.414       .  A
C256        N260   1.429       .  S
C257        C262   1.408       .  A
C257        C266   1.403       .  A
N258        O273   1.262       .  A
N258        O274   1.262       .  A
N260        O271   1.262       .  A
N260        O272   1.262       .  A
C262        C263   1.396       .  A
C262        N267   1.428       .  S
C263        C264   1.403       .  A
C263        H268   1.084       .  S
C264        C265   1.411       .  A
C265        C266   1.399       .  A
C265        N269   1.430       .  S
C266        H270   1.084       .  S
N267        O277   1.262       .  A
N267        O278   1.262       .  A
N269        O275   1.262       .  A
N269        O276   1.262       .  A
C279        C280   1.400       .  A
C279        C284   1.403       .  A
C279        H289   1.084       .  S
C280        C285   1.476       .  S
C280        C281   1.403       .  A
C281        C282   1.399       .  A
C281        N286   1.429       .  S
C282        C283   1.410       .  A
C282        H287   1.083       .  S
C283        C284   1.418       .  A
C284        N288   1.429       .  S
C285        C290   1.406       .  A
C285        C294   1.401       .  A
N286        O301   1.262       .  A
N286        O302   1.262       .  A
N288        O299   1.262       .  A
N288        O300   1.262       .  A
C290        C291   1.399       .  A
C290        N295   1.428       .  S
C291        C292   1.406       .  A
C291        H296   1.084       .  S
C292        C293   1.414       .  A
C293        C294   1.401       .  A
C293        N297   1.430       .  S
C294        H298   1.084       .  S
N295        O305   1.262       .  A
N295        O306   1.262       .  A
N297        O303   1.262       .  A
N297        O304   1.262       .  A
C307        C308   1.404       .  A
C307        C312   1.398       .  A
C307        H317   1.083       .  S
C308        C313   1.488       .  S
C308        C309   1.414       .  A
C309        C310   1.400       .  A
C309        N314   1.429       .  S
C310        C311   1.402       .  A
C310        H315   1.084       .  S
C311        C312   1.409       .  A
C312        N316   1.429       .  S
C313        C318   1.414       .  A
C313        C322   1.405       .  A
N314        O329   1.262       .  A
N314        O330   1.262       .  A
N316        O327   1.262       .  A
N316        O328   1.262       .  A
C318        C319   1.397       .  A
C318        N323   1.429       .  S
C319        C320   1.400       .  A
C319        H324   1.084       .  S
C320        C321   1.411       .  A
C321        C322   1.400       .  A
C321        N325   1.430       .  S
C322        H326   1.083       .  S
N323        O333   1.262       .  A
N323        O334   1.262       .  A
N325        O331   1.262       .  A
N325        O332   1.262       .  A
C335        C336   1.400       .  A
C335        C340   1.397       .  A
C335        H345   1.084       .  S
C336        C341   1.477       .  S
C336        C337   1.410       .  A
C337        C338   1.401       .  A
C337        N342   1.430       .  S
C338        C339   1.405       .  A
C338        H343   1.084       .  S
C339        C340   1.412       .  A
C340        N344   1.428       .  S
C341        C346   1.410       .  A
C341        C350   1.405       .  A
N342        O357   1.262       .  A
N342        O358   1.262       .  A
N344        O355   1.262       .  A
N344        O356   1.262       .  A
C346        C347   1.397       .  A
C346        N351   1.429       .  S
C347        C348   1.400       .  A
C347        H352   1.084       .  S
C348        C349   1.405       .  A
C349        C350   1.399       .  A
C349        N353   1.429       .  S
C350        H354   1.084       .  S
N351        O361   1.262       .  A
N351        O362   1.262       .  A
N353        O359   1.262       .  A
N353        O360   1.262       .  A
C363        C364   1.405       .  A
C363        C368   1.397       .  A
C363        H373   1.083       .  S
C364        C369   1.482       .  S
C364        C365   1.412       .  A
C365        C366   1.396       .  A
C365        N370   1.429       .  S
C366        C367   1.402       .  A
C366        H371   1.084       .  S
C367        C368   1.407       .  A
C368        N372   1.429       .  S
C369        C374   1.413       .  A
C369        C378   1.404       .  A
N370        O385   1.262       .  A
N370        O386   1.262       .  A
N372        O383   1.262       .  A
N372        O384   1.262       .  A
C374        C375   1.397       .  A
C374        N379   1.430       .  S
C375        C376   1.398       .  A
C375        H380   1.084       .  S
C376        C377   1.407       .  A
C377        C378   1.398       .  A
C377        N381   1.429       .  S
C378        H382   1.082       .  S
N379        O389   1.262       .  A
N379        O390   1.262       .  A
N381        O387   1.262       .  A
N381        O388   1.262       .  A
C391        C392   1.404       .  A
C391        C396   1.396       .  A
C391        H401   1.083       .  S
C392        C397   1.482       .  S
C392        C393   1.413       .  A
C393        C394   1.397       .  A
C393        N398   1.429       .  S
C394        C395   1.401       .  A
C394        H399   1.084       .  S
C395        C396   1.408       .  A
C396        N400   1.430       .  S
C397        C402   1.413       .  A
C397        C406   1.404       .  A
N398        O413   1.262       .  A
N398        O414   1.262       .  A
N400        O411   1.262       .  A
N400        O412   1.262       .  A
C402        C403   1.396       .  A
C402        N407   1.429       .  S
C403        C404   1.398       .  A
C403        H408   1.084       .  S
C404        C405   1.407       .  A
C405        C406   1.398       .  A
C405        N409   1.429       .  S
C406        H410   1.083       .  S
N407        O417   1.262       .  A
N407        O418   1.262       .  A
N409        O415   1.262       .  A
N409        O416   1.261       .  A
C419        C420   1.407   1_556  A
C419        C424   1.407       .  A
C419        H429   1.083       .  S
C420        C425   1.499       .  S
C420        C421   1.415       .  A
C421        C422   1.405       .  A
C421        N426   1.428       .  S
C422        C423   1.401       .  A
C422        H427   1.084       .  S
C423        C424   1.410   1_554  A
C424        N428   1.428       .  S
C425        C430   1.415   1_554  A
C425        C434   1.406       .  A
N426        O441   1.262       .  A
N426        O442   1.262       .  A
N428        O439   1.262       .  A
N428        O440   1.262       .  A
C430        C431   1.407       .  A
C430        N435   1.429       .  S
C431        C432   1.404   1_556  A
C431        H436   1.084       .  S
C432        C433   1.411       .  A
C433        C434   1.406       .  A
C433        N437   1.428       .  S
C434        H438   1.083       .  S
N435        O445   1.262       .  A
N435        O446   1.262   1_556  A
N437        O443   1.262       .  A
N437        O444   1.262       .  A
C447        C448   1.407       .  A
C447        C452   1.404       .  A
C447        H457   1.083       .  S
C448        C453   1.500       .  S
C448        C449   1.416   1_554  A
C449        C450   1.406       .  A
C449        N454   1.429       .  S
C450        C451   1.404   1_556  A
C450        H455   1.084       .  S
C451        C452   1.411       .  A
C452        N456   1.429       .  S
C453        C458   1.416       .  A
C453        C462   1.408       .  A
N454        O469   1.262       .  A
N454        O470   1.262       .  A
N456        O467   1.262       .  A
N456        O468   1.262       .  A
C458        C459   1.403       .  A
C458        N463   1.429       .  S
C459        C460   1.401       .  A
C459        H464   1.084       .  S
C460        C461   1.409       .  A
C461        C462   1.406       .  A
C461        N465   1.429       .  S
C462        H466   1.082       .  S
N463        O473   1.262       .  A
N463        O474   1.262   1_554  A
N465        O471   1.262   1_554  A
N465        O472   1.262       .  A
C475        C476   1.409   1_545  A
C475        C480   1.409       .  A
C475        H485   1.081       .  S
C476        C481   1.517       .  S
C476        C477   1.419       .  A
C477        C478   1.407       .  A
C477        N482   1.430       .  S
C478        C479   1.409       .  A
C478        H483   1.083       .  S
C479        C480   1.421   1_565  A
C480        N484   1.431       .  S
C481        C486   1.419   1_565  A
C481        C490   1.410       .  A
N482        O497   1.262       .  A
N482        O498   1.262       .  A
N484        O495   1.263       .  A
N484        O496   1.262       .  A
C486        C487   1.405       .  A
C486        N491   1.430       .  S
C487        C488   1.407   1_545  A
C487        H492   1.083       .  S
C488        C489   1.419       .  A
C489        C490   1.409       .  A
C489        N493   1.431       .  S
C490        H494   1.081       .  S
N491        O501   1.262       .  A
N491        O502   1.262       .  A
N493        O499   1.262       .  A
N493        O500   1.263       .  A
C503        C504   1.413       .  A
C503        C508   1.408       .  A
C503        H513   1.081       .  S
C504        C509   1.514       .  S
C504        C505   1.421   1_545  A
C505        C506   1.403       .  A
C505        N510   1.430       .  S
C506        C507   1.402   1_565  A
C506        H511   1.084       .  S
C507        C508   1.409       .  A
C508        N512   1.431       .  S
C509        C514   1.417       .  A
C509        C518   1.408   1_545  A
N510        O525   1.262       .  A
N510        O526   1.262       .  A
N512        O523   1.262       .  A
N512        O524   1.263       .  A
C514        C515   1.407       .  A
C514        N519   1.430       .  S
C515        C516   1.411       .  A
C515        H520   1.082       .  S
C516        C517   1.420   1_545  A
C517        C518   1.406       .  A
C517        N521   1.431       .  S
C518        H522   1.081       .  S
N519        O529   1.262       .  A
N519        O530   1.262       .  A
N521        O527   1.262       .  A
N521        O528   1.263       .  A
C531        C532   1.405       .  A
C531        C536   1.406       .  A
C531        H541   1.084       .  S
C532        C537   1.499       .  S
C532        C533   1.414   1_655  A
C533        C534   1.409       .  A
C533        N538   1.428       .  S
C534        C535   1.405   1_455  A
C534        H539   1.084       .  S
C535        C536   1.411       .  A
C536        N540   1.428       .  S
C537        C542   1.414       .  A
C537        C546   1.407   1_655  A
N538        O553   1.262       .  A
N538        O554   1.262       .  A
N540        O551   1.262       .  A
N540        O552   1.262       .  A
C542        C543   1.407       .  A
C542        N547   1.428       .  S
C543        C544   1.402       .  A
C543        H548   1.084       .  S
C544        C545   1.410   1_655  A
C545        C546   1.409       .  A
C545        N549   1.429       .  S
C546        H550   1.083       .  S
N547        O557   1.262       .  A
N547        O558   1.262       .  A
N549        O555   1.262   1_455  A
N549        O556   1.262       .  A
C559        C560   1.407       .  A
C559        C564   1.408       .  A
C559        H569   1.083       .  S
C560        C565   1.502       .  S
C560        C561   1.415   1_655  A
C561        C562   1.406       .  A
C561        N566   1.429       .  S
C562        C563   1.404   1_455  A
C562        H567   1.084       .  S
C563        C564   1.411       .  A
C564        N568   1.428       .  S
C565        C570   1.415       .  A
C565        C574   1.408   1_655  A
N566        O581   1.262       .  A
N566        O582   1.262       .  A
N568        O579   1.262       .  A
N568        O580   1.262       .  A
C570        C571   1.406       .  A
C570        N575   1.428       .  S
C571        C572   1.402       .  A
C571        H576   1.084       .  S
C572        C573   1.409   1_655  A
C573        C574   1.406       .  A
C573        N577   1.428       .  S
C574        H578   1.083       .  S
N575        O585   1.262       .  A
N575        O586   1.262   1_655  A
N577        O583   1.262   1_455  A
N577        O584   1.262       .  A
C587        C588   1.399   1_654  A
C587        C592   1.397       .  A
C587        H597   1.084       .  S
C588        C593   1.469       .  S
C588        C589   1.404       .  A
C589        C590   1.393       .  A
C589        N594   1.429       .  S
C590        C591   1.407   1_455  A
C590        H595   1.084       .  S
C591        C592   1.416   1_556  A
C592        N596   1.429       .  S
C593        C598   1.407   1_556  A
C593        C602   1.400   1_455  A
N594        O609   1.262       .  A
N594        O610   1.262       .  A
N596        O607   1.262       .  A
N596        O608   1.262       .  A
C598        C599   1.395       .  A
C598        N603   1.429       .  S
C599        C600   1.402   1_454  A
C599        H604   1.084       .  S
C600        C601   1.409       .  A
C601        C602   1.396       .  A
C601        N605   1.429       .  S
C602        H606   1.084       .  S
N603        O613   1.262       .  A
N603        O614   1.262       .  A
N605        O611   1.261       .  A
N605        O612   1.262       .  A
C615        C616   1.403   1_655  A
C615        C620   1.399       .  A
C615        H625   1.084       .  S
C616        C621   1.475       .  S
C616        C617   1.408   1_554  A
C617        C618   1.396       .  A
C617        N622   1.428       .  S
C618        C619   1.400   1_456  A
C618        H623   1.084       .  S
C619        C620   1.408       .  A
C620        N624   1.428       .  S
C621        C626   1.405       .  A
C621        C630   1.401   1_454  A
N622        O637   1.262       .  A
N622        O638   1.262       .  A
N624        O635   1.262       .  A
N624        O636   1.262       .  A
C626        C627   1.395       .  A
C626        N631   1.429       .  S
C627        C628   1.408   1_554  A
C627        H632   1.083       .  S
C628        C629   1.417   1_455  A
C629        C630   1.401       .  A
C629        N633   1.429       .  S
C630        H634   1.084       .  S
N631        O641   1.262       .  A
N631        O642   1.262       .  A
N633        O639   1.262       .  A
N633        O640   1.262       .  A
C643        C644   1.403   1_556  A
C643        C648   1.397       .  A
C643        H653   1.084       .  S
C644        C649   1.476       .  S
C644        C645   1.409   1_545  A
C645        C646   1.397       .  A
C645        N650   1.429       .  S
C646        C647   1.401   1_565  A
C646        H651   1.084       .  S
C647        C648   1.407   1_554  A
C648        N652   1.429       .  S
C649        C654   1.407   1_554  A
C649        C658   1.401   1_545  A
N650        O665   1.262       .  A
N650        O666   1.262   1_554  A
N652        O663   1.261       .  A
N652        O664   1.262   1_556  A
C654        C655   1.396       .  A
C654        N659   1.429       .  S
C655        C656   1.404       .  A
C655        H660   1.084       .  S
C656        C657   1.415   1_546  A
C657        C658   1.400       .  A
C657        N661   1.430       .  S
C658        H662   1.084       .  S
N659        O669   1.262       .  A
N659        O670   1.262   1_545  A
N661        O667   1.262   1_565  A
N661        O668   1.262       .  A
C671        C672   1.405       .  A
C671        C676   1.403       .  A
C671        H681   1.084       .  S
C672        C677   1.481   1_556  S
C672        C673   1.408   1_556  A
C673        C674   1.395       .  A
C673        N678   1.429       .  S
C674        C675   1.402   1_554  A
C674        H679   1.084       .  S
C675        C676   1.412       .  A
C676        N680   1.429       .  S
C677        C682   1.411   1_554  A
C677        C686   1.404   1_565  A
N678        O693   1.262   1_565  A
N678        O694   1.262       .  A
N680        O691   1.262       .  A
N680        O692   1.262   1_565  A
C682        C683   1.401       .  A
C682        N687   1.429       .  S
C683        C684   1.402   1_556  A
C683        H688   1.084       .  S
C684        C685   1.405   1_565  A
C685        C686   1.396       .  A
C685        N689   1.428       .  S
C686        H690   1.084       .  S
N687        O697   1.262       .  A
N687        O698   1.262       .  A
N689        O695   1.262       .  A
N689        O696   1.262       .  A
C699        C700   1.400   1_565  A
C699        C704   1.401       .  A
C699        H709   1.084       .  S
C700        C705   1.477       .  S
C700        C701   1.406   1_455  A
C701        C702   1.397       .  A
C701        N706   1.428       .  S
C702        C703   1.406   1_645  A
C702        H707   1.083       .  S
C703        C704   1.419       .  A
C704        N708   1.430       .  S
C705        C710   1.410       .  A
C705        C714   1.402   1_455  A
N706        O721   1.262       .  A
N706        O722   1.262       .  A
N708        O719   1.262       .  A
N708        O720   1.262       .  A
C710        C711   1.401       .  A
C710        N715   1.429       .  S
C711        C712   1.402   1_455  A
C711        H716   1.084       .  S
C712        C713   1.406       .  A
C713        C714   1.396       .  A
C713        N717   1.428   1_545  S
C714        H718   1.084   1_545  S
N715        O725   1.262   1_545  A
N715        O726   1.262       .  A
N717        O723   1.262   1_565  A
N717        O724   1.262       .  A
C727        C728   1.403   1_645  A
C727        C732   1.398       .  A
C727        H737   1.084       .  S
C728        C733   1.479       .  S
C728        C729   1.410       .  A
C729        C730   1.400       .  A
C729        N734   1.429       .  S
C730        C731   1.402   1_455  A
C730        H735   1.084       .  S
C731        C732   1.406   1_565  A
C732        N736   1.428       .  S
C733        C738   1.406   1_455  A
C733        C742   1.401   1_565  A
N734        O749   1.262       .  A
N734        O750   1.262       .  A
N736        O747   1.262   1_545  A
N736        O748   1.262       .  A
C738        C739   1.397       .  A
C738        N743   1.429       .  S
C739        C740   1.409   1_655  A
C739        H744   1.083       .  S
C740        C741   1.417   1_565  A
C741        C742   1.401       .  A
C741        N745   1.428       .  S
C742        H746   1.084       .  S
N743        O753   1.262       .  A
N743        O754   1.262       .  A
N745        O751   1.262       .  A
N745        O752   1.262       .  A
