geometry optimzed in LAMMPS
_audit_creation_date              2020-12-01 
_audit_creation_method            'lammps2cif' 
_symmetry_space_group_name_H-M    'P1' 
_symmetry_Int_Tables_number       1 
_symmetry_cell_setting            triclinic 
loop_ 
_symmetry_equiv_pos_as_xyz 
  x,y,z 
_cell_length_a                    28.45799287 
_cell_length_b                    31.059074293749863 
_cell_length_c                    25.950227420458358 
_cell_angle_alpha                 91.4388648011212 
_cell_angle_beta                  90.2272967904739 
_cell_angle_gamma                 89.09457832318844 
loop_ 
_atom_site_label 
_atom_site_type_symbol 
_atom_site_fract_x 
_atom_site_fract_y 
_atom_site_fract_z 
_atom_site_charge 
O1          O  0.03040563  0.19538381  0.45024121    -0.73700
O2          O  0.04015079  0.29381032  0.55173412    -0.74700
O3          O  0.03007149  0.20309467  0.55914323    -0.63300
O4          O  0.04015240  0.28594561  0.44329515    -0.71700
O5          O  0.46243737  0.29231748  0.44084980    -0.71300
O6          O  0.45254259  0.21053412  0.55765434    -0.62500
O7          O  0.46275627  0.30157510  0.54978311    -0.75000
O8          O  0.45290561  0.20168293  0.44851285    -0.73800
Cu9        Cu  0.03781899  0.24421909  0.50115905     1.04600
Cu10       Cu  0.45492541  0.25182710  0.49925504     1.04300
C11         C  0.49061951  0.18255523  0.43336287     0.92500
C12         C  0.00293356  0.31390849  0.56632649     0.91600
C13         C  0.98966671  0.19302642  0.57606789     0.83800
C14         C  0.50281283  0.30247317  0.42406625     0.90100
C15         C  0.50361460  0.45093128  0.29077051     0.85700
C16         C  0.46260613  0.45659247  0.25225773    -0.54500
C17         C  0.46195944  0.99511768  0.22766554     0.08700
C18         C  0.50240943  0.02492299  0.24410723     0.19600
C19         C  0.04749083  0.45889221  0.25807039    -0.55200
C20         C  0.04755780  0.99774390  0.23401940     0.08800
C21         C  0.49842674  0.99049665  0.32714713    -0.54800
C22         C  0.99845062  0.02891036  0.30313859     0.09300
H23         H  0.43597086  0.43302235  0.24374706     0.13900
H24         H  0.50191306  0.05643110  0.22485059    -0.00400
H25         H  0.07491216  0.43458399  0.25251014     0.14200
H26         H  0.49532738  0.98831548  0.36871526     0.14000
C27         C  0.00491774  0.46727759  0.70334558     0.85700
C28         C  0.04547783  0.47398894  0.74243273    -0.54500
C29         C  0.04054522  0.01000701  0.77361426     0.08700
C30         C  0.99544944  0.03656234  0.76246196     0.19600
C31         C  0.46097250  0.46795614  0.73744695    -0.55200
C32         C  0.45531602  0.00408598  0.76782168     0.08800
C33         C  0.00282502  0.00935000  0.67401986    -0.54800
C34         C  0.49746141  0.04547263  0.70435884     0.09300
H35         H  0.07519438  0.45226782  0.74704805     0.13900
H36         H  0.99150073  0.06614346  0.78701386    -0.00400
H37         H  0.43659317  0.44139962  0.73809682     0.14200
H38         H  0.00456919  0.01048377  0.63224492     0.14000
O39         O  0.20268255  0.05986826  0.05971112    -0.73700
O40         O  0.30101272  0.05236508  0.94680629    -0.74700
O41         O  0.20115656  0.06087678  0.94929065    -0.63300
O42         O  0.30348735  0.05193790  0.05687127    -0.71700
O43         O  0.29846112  0.48081585  0.05281006    -0.71300
O44         O  0.19558043  0.48959605  0.94743636    -0.62500
O45         O  0.29439291  0.48144387  0.94413546    -0.75000
O46         O  0.19927179  0.48842786  0.05713520    -0.73800
Cu47       Cu  0.25220128  0.05886789  0.00334309     1.04600
Cu48       Cu  0.24659993  0.48273339  0.00035757     1.04300
C49         C  0.18592425  0.02485069  0.07634570     0.92500
C50         C  0.31331759  0.01542888  0.92785352     0.91600
C51         C  0.18286865  0.02640782  0.93104697     0.83800
C52         C  0.31792120  0.01480129  0.07095023     0.90100
C53         C  0.12415158  0.51849045  0.80056705    -0.09900
C54         C  0.07624668  0.02094313  0.81397641     0.06300
C55         C  0.06437526  0.02983861  0.86613095    -0.03700
C56         C  0.09981716  0.03321468  0.90348383    -0.08100
C57         C  0.14715535  0.02862415  0.89011254     0.05400
C58         C  0.15941823  0.52242263  0.83807161    -0.03100
Br59       Br  0.22387175  0.51784207  0.81694387    -0.02800
H60         H  0.13419349  0.51246170  0.76077908     0.09300
H61         H  0.09025483  0.03781918  0.94350899     0.07300
Br62       Br  0.00126182  0.03412953  0.89099192    -0.03300
C63         C  0.41086533  0.97268329  0.83932496    -0.09900
C64         C  0.41745308  0.00761907  0.80705896     0.06300
C65         C  0.38888676  0.04474116  0.81400881    -0.03700
C66         C  0.35553117  0.04677499  0.85369642    -0.08100
C67         C  0.34934239  0.01196042  0.88654774     0.05400
C68         C  0.37747115  0.97440140  0.87858535    -0.03100
Br69       Br  0.37471446  0.92467326  0.92084834    -0.02800
H70         H  0.43291388  0.94407172  0.83488495     0.09300
H71         H  0.33359458  0.57546397  0.85815674     0.07300
Br72       Br  0.39129795  0.59218590  0.76833941    -0.03300
C73         C  0.16577891  0.00744116  0.16578260    -0.09900
C74         C  0.15182691  0.02526335  0.11906788     0.06300
C75         C  0.10464090  0.03818740  0.11252528    -0.03700
C76         C  0.07161219  0.03016832  0.15098760    -0.08100
C77         C  0.08495391  0.01010531  0.19698119     0.05400
C78         C  0.13329266  0.00063096  0.20496765    -0.03100
Br79       Br  0.15859939  0.48017186  0.26862019    -0.02800
H80         H  0.20229475  0.99828787  0.17160009     0.09300
H81         H  0.03503221  0.03810674  0.14376710     0.07300
Br82       Br  0.08313623  0.06441631  0.05060559    -0.03300
C83         C  0.42237040  0.97148810  0.14702441    -0.09900
C84         C  0.42780449  0.00358786  0.18543071     0.06300
C85         C  0.39853778  0.04062545  0.18418341    -0.03700
C86         C  0.36387878  0.04420171  0.14581828    -0.08100
C87         C  0.35708765  0.01105194  0.10872198     0.05400
C88         C  0.38751550  0.97463286  0.10929206    -0.03100
Br89       Br  0.38475168  0.92792727  0.05967413    -0.02800
H90         H  0.44512106  0.94316466  0.14686900     0.09300
H91         H  0.34095164  0.07238579  0.14621876     0.07300
Br92       Br  0.40110426  0.08560167  0.23583033    -0.03300
C93         C  0.47473324  0.37494063  0.31209791    -0.09900
C94         C  0.50687768  0.40870265  0.32056885     0.06300
C95         C  0.04171717  0.40292878  0.35934410    -0.03700
C96         C  0.04108078  0.36692285  0.39056296    -0.08100
C97         C  0.50645756  0.33571864  0.38461713     0.05400
C98         C  0.47419358  0.33905605  0.34369404    -0.03100
Br99       Br  0.42966024  0.29472486  0.32799233    -0.02800
H100        H  0.44926108  0.37556396  0.28141838     0.09300
H101        H  0.06664327  0.36439217  0.42145326     0.07300
Br102      Br  0.09024788  0.44366826  0.37464629    -0.03300
C103        C  0.03205718  0.13217204  0.37279032    -0.09900
C104        C  0.98955379  0.14509300  0.39652117     0.06300
C105        C  0.44892849  0.12039795  0.38630183    -0.03300
C106        C  0.45246287  0.08283113  0.35536094    -0.08100
C107        C  0.99519451  0.07015464  0.33249212     0.05400
C108        C  0.03506989  0.09530177  0.34115753    -0.03100
Br109      Br  0.09544428  0.07916369  0.31402053    -0.02800
H110        H  0.06371264  0.15042032  0.37950493     0.09300
H111        H  0.42170326  0.06318734  0.34930291     0.07300
Br112      Br  0.38790885  0.13454668  0.41385005    -0.03300
C113        C  0.46825770  0.38224267  0.60102997    -0.09900
C114        C  0.00584214  0.35256171  0.60111858     0.06300
C115        C  0.04501461  0.36147966  0.63314887    -0.03700
C116        C  0.04477141  0.39834734  0.66546770    -0.08100
C117        C  0.00638409  0.42769344  0.66661413     0.05400
C118        C  0.46837858  0.41946801  0.63226133    -0.03100
Br119      Br  0.41490331  0.45762379  0.62471403    -0.02800
H120        H  0.43846322  0.37689742  0.57566613     0.09300
H121        H  0.07541737  0.40341009  0.68918210     0.07300
Br122      Br  0.09987916  0.32467421  0.63625814    -0.03300
C123        C  0.02315285  0.15514639  0.65173659    -0.09900
C124        C  0.48638016  0.15963780  0.61573713     0.06300
C125        C  0.44988996  0.12924235  0.61516072    -0.03700
C126        C  0.45279521  0.09377199  0.64716769    -0.08100
C127        C  0.49093934  0.08805879  0.68079991     0.05400
C128        C  0.02540607  0.11993208  0.68445577    -0.03100
Br129      Br  0.07834280  0.11487154  0.72988804    -0.02800
H130        H  0.05118704  0.17834788  0.65320264     0.09300
H131        H  0.42613281  0.06928744  0.64409359     0.07300
Br132      Br  0.39772528  0.13105294  0.56801364    -0.03300
O133        O  0.03040696  0.69539432  0.45014228    -0.73700
O134        O  0.04013815  0.79380978  0.55165228    -0.74700
O135        O  0.03007678  0.70309182  0.55904254    -0.63300
O136        O  0.04013359  0.78596294  0.44321146    -0.71700
O137        O  0.46242120  0.79232369  0.44077493    -0.71300
O138        O  0.45255209  0.71052023  0.55756719    -0.62500
O139        O  0.46274623  0.80156478  0.54971202    -0.75000
O140        O  0.45291034  0.70168010  0.44842507    -0.73800
Cu141      Cu  0.03781249  0.74422589  0.50106645     1.04600
Cu142      Cu  0.45492225  0.75182141  0.49917385     1.04300
C143        C  0.49062640  0.68255617  0.43327397     0.92500
C144        C  0.00291919  0.81390000  0.56625450     0.91600
C145        C  0.98967633  0.69301761  0.57597443     0.83800
C146        C  0.50279345  0.80249094  0.42399222     0.90100
C147        C  0.50360460  0.95098427  0.29073807     0.85700
C148        C  0.46260625  0.95665284  0.25221246    -0.54500
C149        C  0.46195794  0.49504874  0.22769197     0.08700
C150        C  0.50241564  0.52485505  0.24410938     0.19600
C151        C  0.04748917  0.95895807  0.25805326    -0.55200
C152        C  0.04755940  0.49767163  0.23402238     0.08800
C153        C  0.49844797  0.49045392  0.32716540    -0.54800
C154        C  0.99846699  0.52885972  0.30314075     0.09300
H155        H  0.43598080  0.93307979  0.24367373     0.13900
H156        H  0.50191744  0.55635818  0.22484232    -0.00400
H157        H  0.07491712  0.93465587  0.25249219     0.14200
H158        H  0.49535321  0.48828517  0.36873523     0.14000
C159        C  0.00490641  0.96724033  0.70332355     0.85700
C160        C  0.04546665  0.97393693  0.74241422    -0.54500
C161        C  0.04055532  0.51006892  0.77361885     0.08700
C162        C  0.99545497  0.53661626  0.76245464     0.19600
C163        C  0.46096208  0.96791487  0.73742199    -0.55200
C164        C  0.45532550  0.50413449  0.76783284     0.08800
C165        C  0.00283232  0.50937726  0.67402344    -0.54800
C166        C  0.49746491  0.54550570  0.70434742     0.09300
H167        H  0.07518383  0.95221444  0.74702177     0.13900
H168        H  0.99149896  0.56620726  0.78698781    -0.00400
H169        H  0.43657708  0.94136207  0.73805355     0.14200
H170        H  0.00457987  0.51049940  0.63224780     0.14000
O171        O  0.20269266  0.55982673  0.05974552    -0.73700
O172        O  0.30102612  0.55237586  0.94684149    -0.74700
O173        O  0.20116695  0.56089600  0.94932971    -0.63300
O174        O  0.30349391  0.55188677  0.05690669    -0.71700
O175        O  0.29846825  0.98086418  0.05281771    -0.71300
O176        O  0.19556643  0.98957720  0.94746277    -0.62500
O177        O  0.29437639  0.98143420  0.94414386    -0.75000
O178        O  0.19927629  0.98846839  0.05716125    -0.73800
Cu179      Cu  0.25221194  0.55885197  0.00338058     1.04600
Cu180      Cu  0.24659563  0.98274857  0.00037731     1.04300
C181        C  0.18592707  0.52480176  0.07634969     0.92500
C182        C  0.31333573  0.51544720  0.92787079     0.91600
C183        C  0.18288116  0.52643740  0.93105348     0.83800
C184        C  0.31791652  0.51474195  0.07096983     0.90100
C185        C  0.12413705  0.01846770  0.80055897    -0.09900
C186        C  0.07626081  0.52101602  0.81397641     0.06300
C187        C  0.06439371  0.52996568  0.86612219    -0.03700
C188        C  0.09983712  0.53333339  0.90347668    -0.08100
C189        C  0.14717232  0.52867752  0.89011508     0.05400
C190        C  0.15940323  0.02241166  0.83806328    -0.03100
Br191      Br  0.22385845  0.01789681  0.81692810    -0.02800
H192        H  0.13417905  0.01247231  0.76076493     0.09300
H193        H  0.09027619  0.53798043  0.94349728     0.07300
Br194      Br  0.00128159  0.53434658  0.89097461    -0.03300
C195        C  0.41094708  0.47275207  0.83940085    -0.09900
C196        C  0.41747652  0.50766440  0.80708454     0.06300
C197        C  0.38885840  0.54475772  0.81398764    -0.03700
C198        C  0.35550356  0.54678806  0.85367723    -0.08100
C199        C  0.34936852  0.51199505  0.88657384     0.05400
C200        C  0.37755445  0.47446615  0.87866270    -0.03100
Br201      Br  0.37487594  0.42478227  0.92100441    -0.02800
H202        H  0.43303633  0.44416346  0.83499411     0.09300
H203        H  0.33366613  0.07547541  0.85821227     0.07300
Br204      Br  0.39139557  0.09221495  0.76843281    -0.03300
C205        C  0.16577747  0.50733378  0.16576654    -0.09900
C206        C  0.15183177  0.52519612  0.11907269     0.06300
C207        C  0.10465490  0.53815610  0.11255164    -0.03700
C208        C  0.07162455  0.53012749  0.15100911    -0.08100
C209        C  0.08495828  0.51002811  0.19698295     0.05400
C210        C  0.13329315  0.50052306  0.20495299    -0.03100
Br211      Br  0.15859533  0.98030912  0.26864987    -0.02800
H212        H  0.20228856  0.49815701  0.17156989     0.09300
H213        H  0.03504955  0.53809237  0.14379976     0.07300
Br214      Br  0.08316551  0.56445450  0.05066836    -0.03300
C215        C  0.42231629  0.47138314  0.14709657    -0.09900
C216        C  0.42779165  0.50350878  0.18546423     0.06300
C217        C  0.39855730  0.54056602  0.18418527    -0.03700
C218        C  0.36389966  0.54414305  0.14581891    -0.08100
C219        C  0.35707204  0.51097377  0.10875522     0.05400
C220        C  0.38745690  0.47452508  0.10936908    -0.03100
Br221      Br  0.38462640  0.42776507  0.05983024    -0.02800
H222        H  0.44503835  0.44304102  0.14696781     0.09300
H223        H  0.34100270  0.57234721  0.14619252     0.07300
Br224      Br  0.40116237  0.58557196  0.23579311    -0.03300
C225        C  0.47470201  0.87499652  0.31205638    -0.09900
C226        C  0.50686068  0.90874791  0.32052464     0.06300
C227        C  0.04170222  0.90295829  0.35929221    -0.03700
C228        C  0.04106186  0.86694528  0.39050008    -0.08100
C229        C  0.50643169  0.83574967  0.38455544     0.05400
C230        C  0.47415814  0.83910545  0.34364322    -0.03100
Br231      Br  0.42960360  0.79479208  0.32794290    -0.02800
H232        H  0.44921827  0.87563475  0.28138941     0.09300
H233        H  0.06662997  0.86440243  0.42138318     0.07300
Br234      Br  0.09024178  0.94368653  0.37460233    -0.03300
C235        C  0.03205867  0.63216432  0.37270822    -0.09900
C236        C  0.98955842  0.64508172  0.39644960     0.06300
C237        C  0.44894574  0.62036662  0.38626841    -0.03300
C238        C  0.45248358  0.58278807  0.35534944    -0.08100
C239        C  0.99520812  0.57011303  0.33247411     0.05400
C240        C  0.03507672  0.59527650  0.34110463    -0.03100
Br241      Br  0.09545063  0.57913302  0.31396633    -0.02800
H242        H  0.06370834  0.65042683  0.37939684     0.09300
H243        H  0.42172930  0.56313266  0.34931541     0.07300
Br244      Br  0.38793479  0.63449692  0.41385232    -0.03300
C245        C  0.46824458  0.88222638  0.60098300    -0.09900
C246        C  0.00582594  0.85254521  0.60106010     0.06300
C247        C  0.04499885  0.86145591  0.63309292    -0.03700
C248        C  0.04475734  0.89831761  0.66542112    -0.08100
C249        C  0.00637092  0.92766460  0.66657780     0.05400
C250        C  0.46836690  0.91944661  0.63222403    -0.03100
Br251      Br  0.41489112  0.95760342  0.62469067    -0.02800
H252        H  0.43844895  0.87688532  0.57561910     0.09300
H253        H  0.07540532  0.90337495  0.68913567     0.07300
Br254      Br  0.09986060  0.82464629  0.63619481    -0.03300
C255        C  0.02321127  0.65512478  0.65160778    -0.09900
C256        C  0.48640627  0.65963343  0.61565524     0.06300
C257        C  0.44988681  0.62926680  0.61514131    -0.03700
C258        C  0.45278775  0.59381082  0.64717256    -0.08100
C259        C  0.49095674  0.58808400  0.68076735     0.05400
C260        C  0.02546483  0.61992388  0.68434619    -0.03100
Br261      Br  0.07845716  0.61482538  0.72969444    -0.02800
H262        H  0.05127210  0.67830008  0.65302227     0.09300
H263        H  0.42610017  0.56934634  0.64414621     0.07300
Br264      Br  0.39767791  0.63109524  0.56805385    -0.03300
O265        O  0.53040809  0.19538478  0.45023860    -0.73700
O266        O  0.54015343  0.29380592  0.55173833    -0.74700
O267        O  0.53007424  0.20309015  0.55914113    -0.63300
O268        O  0.54015398  0.28594717  0.44329837    -0.71700
O269        O  0.96243583  0.29231633  0.44084385    -0.71300
O270        O  0.95254006  0.21053958  0.55765643    -0.62500
O271        O  0.96275400  0.30158099  0.54977752    -0.75000
O272        O  0.95290309  0.20168188  0.44851470    -0.73800
Cu273      Cu  0.53782152  0.24421751  0.50115967     1.04600
Cu274      Cu  0.95492307  0.25182939  0.49925314     1.04300
C275        C  0.99061714  0.18255346  0.43336612     0.92500
C276        C  0.50293569  0.31390224  0.56633263     0.91600
C277        C  0.48966946  0.19302083  0.57606490     0.83800
C278        C  0.00281192  0.30247112  0.42406108     0.90100
C279        C  0.00361625  0.45092989  0.29076812     0.85700
C280        C  0.96260803  0.45659069  0.25225533    -0.54500
C281        C  0.96196030  0.99511808  0.22766570     0.08700
C282        C  0.00241008  0.02492345  0.24410786     0.19600
C283        C  0.54748917  0.45889059  0.25807171    -0.55200
C284        C  0.54755697  0.99774274  0.23402094     0.08800
C285        C  0.99842870  0.99049420  0.32714608    -0.54800
C286        C  0.49844925  0.02891179  0.30313762     0.09300
H287        H  0.93597360  0.43301993  0.24374358     0.13900
H288        H  0.00191259  0.05643219  0.22485252    -0.00400
H289        H  0.57490949  0.43458129  0.25251236     0.14200
H290        H  0.99532939  0.98831149  0.36871402     0.14000
C291        C  0.50491867  0.46727115  0.70334983     0.85700
C292        C  0.54547785  0.47398310  0.74243750    -0.54500
C293        C  0.54054752  0.01000537  0.77361558     0.08700
C294        C  0.49545158  0.03655998  0.76246116     0.19600
C295        C  0.96097250  0.46796047  0.73744422    -0.55200
C296        C  0.95531370  0.00408836  0.76782159     0.08800
C297        C  0.50282939  0.00934427  0.67402074    -0.54800
C298        C  0.99745833  0.04547723  0.70436010     0.09300
H299        H  0.57519422  0.45226215  0.74705415     0.13900
H300        H  0.49150178  0.06614206  0.78701120    -0.00400
H301        H  0.93659383  0.44140344  0.73809341     0.14200
H302        H  0.50457471  0.01047645  0.63224575     0.14000
O303        O  0.70268157  0.05986467  0.05971312    -0.73700
O304        O  0.80101318  0.05236267  0.94681056    -0.74700
O305        O  0.70115713  0.06087356  0.94929318    -0.63300
O306        O  0.80348584  0.05193581  0.05687508    -0.71700
O307        O  0.79846294  0.48081134  0.05281119    -0.71300
O308        O  0.69558266  0.48958956  0.94743646    -0.62500
O309        O  0.79439535  0.48143917  0.94413663    -0.75000
O310        O  0.69927313  0.48842122  0.05713510    -0.73800
Cu311      Cu  0.75220090  0.05886502  0.00334625     1.04600
Cu312      Cu  0.74660196  0.48272769  0.00035818     1.04300
C313        C  0.68592361  0.02484682  0.07634722     0.92500
C314        C  0.81331848  0.01542673  0.92785738     0.91600
C315        C  0.68286985  0.02640462  0.93104877     0.83800
C316        C  0.81792033  0.01479947  0.07095398     0.90100
C317        C  0.62415207  0.51848395  0.80056828    -0.09900
C318        C  0.57624897  0.02094286  0.81397705     0.06300
C319        C  0.56437746  0.02984088  0.86613089    -0.03700
C320        C  0.59981916  0.03321590  0.90348407    -0.08100
C321        C  0.64715724  0.02862140  0.89011370     0.05400
C322        C  0.65941901  0.52241434  0.83807263    -0.03100
Br323      Br  0.72387238  0.51782893  0.81694501    -0.02800
H324        H  0.63419357  0.51245394  0.76078044     0.09300
H325        H  0.59025661  0.03782251  0.94350870     0.07300
Br326      Br  0.50126382  0.03413659  0.89099048    -0.03300
C327        C  0.91086147  0.97268201  0.83932160    -0.09900
C328        C  0.91745140  0.00762031  0.80705989     0.06300
C329        C  0.88888849  0.04474395  0.81401566    -0.03700
C330        C  0.85553397  0.04677643  0.85370428    -0.08100
C331        C  0.84934280  0.01195922  0.88655102     0.05400
C332        C  0.87746824  0.97439884  0.87858302    -0.03100
Br333      Br  0.87470802  0.92466662  0.92083903    -0.02800
H334        H  0.93290763  0.94406932  0.83487752     0.09300
H335        H  0.83359799  0.57546410  0.85816519     0.07300
Br336      Br  0.89130015  0.59219160  0.76835010    -0.03300
C337        C  0.66577830  0.00743893  0.16578439    -0.09900
C338        C  0.65182594  0.02525912  0.11906873     0.06300
C339        C  0.60463952  0.03818119  0.11252483    -0.03700
C340        C  0.57161103  0.03016301  0.15098739    -0.08100
C341        C  0.58495317  0.01010257  0.19698236     0.05400
C342        C  0.63329204  0.00062918  0.20496952    -0.03100
Br343      Br  0.65859956  0.48016668  0.26861905    -0.02800
H344        H  0.70229444  0.99828684  0.17160259     0.09300
H345        H  0.53503085  0.03810002  0.14376605     0.07300
Br346      Br  0.58313374  0.06440607  0.05060328    -0.03300
C347        C  0.92237556  0.97149170  0.14702140    -0.09900
C348        C  0.92780513  0.00358866  0.18543182     0.06300
C349        C  0.89853295  0.04062275  0.18419040    -0.03700
C350        C  0.86387294  0.04419836  0.14582635    -0.08100
C351        C  0.85708673  0.01105121  0.10872546     0.05400
C352        C  0.88752001  0.97463586  0.10928986    -0.03100
Br353      Br  0.88476285  0.92793546  0.05966446    -0.02800
H354        H  0.94513023  0.94317084  0.14686223     0.09300
H355        H  0.84094137  0.07237953  0.14623102     0.07300
Br356      Br  0.90109404  0.08559388  0.23584418    -0.03300
C357        C  0.97473979  0.37493584  0.31208815    -0.09900
C358        C  0.00688050  0.40870021  0.32056420     0.06300
C359        C  0.54171710  0.40292992  0.35934563    -0.03700
C360        C  0.54108205  0.36692371  0.39056429    -0.08100
C361        C  0.00645871  0.33571601  0.38461167     0.05400
C362        C  0.97419955  0.33905089  0.34368385    -0.03100
Br363      Br  0.92967407  0.29471486  0.32797438    -0.02800
H364        H  0.94927179  0.37555732  0.28140435     0.09300
H365        H  0.56664735  0.36439169  0.42145158     0.07300
Br366      Br  0.59024941  0.44366851  0.37464478    -0.03300
C367        C  0.53206063  0.13216979  0.37279292    -0.09900
C368        C  0.48955564  0.14509578  0.39651666     0.06300
C369        C  0.94892917  0.12038985  0.38631392    -0.03300
C370        C  0.95246450  0.08282360  0.35537193    -0.08100
C371        C  0.49519452  0.07015686  0.33248903     0.05400
C372        C  0.53507238  0.09529925  0.34116077    -0.03100
Br373      Br  0.59544818  0.07915428  0.31403324    -0.02800
H374        H  0.56371807  0.15041402  0.37951297     0.09300
H375        H  0.92170694  0.06317615  0.34931912     0.07300
Br376      Br  0.88791256  0.13452989  0.41387581    -0.03300
C377        C  0.96825429  0.38224840  0.60102663    -0.09900
C378        C  0.50584326  0.35255381  0.60112655     0.06300
C379        C  0.54501253  0.36146807  0.63316269    -0.03700
C380        C  0.54476961  0.39833635  0.66548042    -0.08100
C381        C  0.50638503  0.42768573  0.66662079     0.05400
C382        C  0.96837563  0.41947407  0.63225783    -0.03100
Br383      Br  0.91489880  0.45762858  0.62471410    -0.02800
H384        H  0.93845765  0.37690133  0.57566642     0.09300
H385        H  0.57541310  0.40339622  0.68919950     0.07300
Br386      Br  0.59987057  0.32465519  0.63628274    -0.03300
C387        C  0.52315122  0.15514390  0.65173787    -0.09900
C388        C  0.98637755  0.15964428  0.61574165     0.06300
C389        C  0.94988371  0.12925237  0.61517115    -0.03700
C390        C  0.95278918  0.09378160  0.64717762    -0.08100
C391        C  0.99093712  0.08806444  0.68080360     0.05400
C392        C  0.52540392  0.11993011  0.68445786    -0.03100
Br393      Br  0.57833456  0.11487594  0.72989963    -0.02800
H394        H  0.55118224  0.17834843  0.65320845     0.09300
H395        H  0.92612376  0.06929954  0.64410757     0.07300
Br396      Br  0.89771288  0.13106782  0.56803258    -0.03300
O397        O  0.53041410  0.69539551  0.45014034    -0.73700
O398        O  0.54014449  0.79380532  0.55165838    -0.74700
O399        O  0.53008413  0.70308645  0.55904175    -0.63300
O400        O  0.54013845  0.78596508  0.44321628    -0.71700
O401        O  0.96241645  0.79232279  0.44076712    -0.71300
O402        O  0.95254497  0.71052646  0.55756820    -0.62500
O403        O  0.96274030  0.80157124  0.54970452    -0.75000
O404        O  0.95290312  0.70167934  0.44842594    -0.73800
Cu405      Cu  0.53781915  0.74422428  0.50106847     1.04600
Cu406      Cu  0.95491577  0.75182422  0.49917044     1.04300
C407        C  0.99061923  0.68255425  0.43327681     0.92500
C408        C  0.50292486  0.81389357  0.56626244     0.91600
C409        C  0.48968354  0.69301096  0.57597235     0.83800
C410        C  0.00278957  0.80248860  0.42398523     0.90100
C411        C  0.00360659  0.95098298  0.29073493     0.85700
C412        C  0.96260769  0.95665253  0.25221067    -0.54500
C413        C  0.96195836  0.49504779  0.22769173     0.08700
C414        C  0.00241439  0.52485544  0.24411077     0.19600
C415        C  0.54748768  0.95895778  0.25805655    -0.55200
C416        C  0.54755926  0.49766912  0.23402204     0.08800
C417        C  0.99844714  0.49045121  0.32716490    -0.54800
C418        C  0.49846900  0.52886142  0.30313913     0.09300
H419        H  0.93598189  0.93307978  0.24367173     0.13900
H420        H  0.00191426  0.55635924  0.22484518    -0.00400
H421        H  0.57491552  0.93465525  0.25249698     0.14200
H422        H  0.99535164  0.48828087  0.36873451     0.14000
C423        C  0.50491011  0.96723576  0.70332689     0.85700
C424        C  0.54546957  0.97393409  0.74241776    -0.54500
C425        C  0.54055556  0.51006431  0.77362136     0.08700
C426        C  0.49545595  0.53661208  0.76245495     0.19600
C427        C  0.96095904  0.96791830  0.73741975    -0.55200
C428        C  0.95532535  0.50413774  0.76783208     0.08800
C429        C  0.50283533  0.50936976  0.67402543    -0.54800
C430        C  0.99746234  0.54551192  0.70434758     0.09300
H431        H  0.57518721  0.95221242  0.74702646     0.13900
H432        H  0.49149972  0.56620390  0.78698664    -0.00400
H433        H  0.93657390  0.94136558  0.73805026     0.14200
H434        H  0.50458434  0.51049027  0.63224975     0.14000
O435        O  0.70269206  0.55982025  0.05974527    -0.73700
O436        O  0.80102649  0.55237133  0.94684342    -0.74700
O437        O  0.70116729  0.56088970  0.94933057    -0.63300
O438        O  0.80349295  0.55188259  0.05690839    -0.71700
O439        O  0.79846845  0.98086186  0.05282122    -0.71300
O440        O  0.69556767  0.98957393  0.94746440    -0.62500
O441        O  0.79437761  0.98143178  0.94414730    -0.75000
O442        O  0.69927636  0.98846468  0.05716301    -0.73800
Cu443      Cu  0.75221174  0.55884654  0.00338163     1.04600
Cu444      Cu  0.74659634  0.98274559  0.00037994     1.04300
C445        C  0.68592707  0.52479495  0.07634896     0.92500
C446        C  0.81333720  0.51544307  0.92787239     0.91600
C447        C  0.68288238  0.52643083  0.93105408     0.83800
C448        C  0.81791676  0.51473815  0.07097131     0.90100
C449        C  0.62413941  0.01846456  0.80056020    -0.09900
C450        C  0.57626141  0.52101214  0.81397787     0.06300
C451        C  0.56439472  0.52996346  0.86612324    -0.03700
C452        C  0.59983846  0.53332992  0.90347745    -0.08100
C453        C  0.64717342  0.52867082  0.89011589     0.05400
C454        C  0.65940546  0.02240702  0.83806481    -0.03100
Br455      Br  0.72386072  0.01788724  0.81693050    -0.02800
H456        H  0.63418147  0.01246745  0.76076650     0.09300
H457        H  0.59027782  0.53797843  0.94349777     0.07300
Br458      Br  0.50128249  0.53434820  0.89097504    -0.03300
C459        C  0.91094678  0.47275124  0.83939757    -0.09900
C460        C  0.91747692  0.50766580  0.80708472     0.06300
C461        C  0.88886005  0.54475946  0.81399228    -0.03700
C462        C  0.85550584  0.54678776  0.85368240    -0.08100
C463        C  0.84936981  0.51199245  0.88657520     0.05400
C464        C  0.87755436  0.47446322  0.87865973    -0.03100
Br465      Br  0.87487399  0.42477563  0.92099514    -0.02800
H466        H  0.93303511  0.44416237  0.83498774     0.09300
H467        H  0.83367151  0.07547810  0.85822442     0.07300
Br468      Br  0.89140013  0.09222231  0.76844666    -0.03300
C469        C  0.66577728  0.50732831  0.16576566    -0.09900
C470        C  0.65183128  0.52518895  0.11907108     0.06300
C471        C  0.60465412  0.53814742  0.11254891    -0.03700
C472        C  0.57162408  0.53012025  0.15100686    -0.08100
C473        C  0.58495816  0.51002310  0.19698185     0.05400
C474        C  0.63329300  0.50051811  0.20495219    -0.03100
Br475      Br  0.65859480  0.98030875  0.26865225    -0.02800
H476        H  0.70228852  0.49815226  0.17156941     0.09300
H477        H  0.53504897  0.53808437  0.14379703     0.07300
Br478      Br  0.58316343  0.56444138  0.05066369    -0.03300
C479        C  0.92232281  0.47138568  0.14709186    -0.09900
C480        C  0.92779194  0.50350788  0.18546474     0.06300
C481        C  0.89855074  0.54056072  0.18419245    -0.03700
C482        C  0.86389296  0.54413727  0.14582627    -0.08100
C483        C  0.85707202  0.51097128  0.10875673     0.05400
C484        C  0.88746315  0.47452689  0.10936466    -0.03100
Br485      Br  0.88464073  0.42777228  0.05981788    -0.02800
H486        H  0.94504973  0.44304682  0.14695901     0.09300
H487        H  0.84099069  0.57233787  0.14620454     0.07300
Br488      Br  0.90114699  0.58555977  0.23580968    -0.03300
C489        C  0.97470674  0.87499250  0.31204562    -0.09900
C490        C  0.00686296  0.90874527  0.32051872     0.06300
C491        C  0.54170198  0.90296111  0.35929616    -0.03700
C492        C  0.54106389  0.86694788  0.39050397    -0.08100
C493        C  0.00643064  0.83574656  0.38454805     0.05400
C494        C  0.97416151  0.83910089  0.34363166    -0.03100
Br495      Br  0.92961352  0.79478372  0.32792377    -0.02800
H496        H  0.94922677  0.87562971  0.28137474     0.09300
H497        H  0.56663431  0.86440474  0.42138474     0.07300
Br498      Br  0.59024050  0.94369070  0.37460498    -0.03300
C499        C  0.53206765  0.63216069  0.37271295    -0.09900
C500        C  0.48956519  0.64508487  0.39644488     0.06300
C501        C  0.94894235  0.62035625  0.38628380    -0.03300
C502        C  0.95248142  0.58277847  0.35536340    -0.08100
C503        C  0.49521236  0.57011561  0.33247039     0.05400
C504        C  0.53508430  0.59527272  0.34110949    -0.03100
Br505      Br  0.59545950  0.57912075  0.31398145    -0.02800
H506        H  0.56371992  0.65041777  0.37940890     0.09300
H507        H  0.92172996  0.56311810  0.34933646     0.07300
Br508      Br  0.88793582  0.63447454  0.41388729    -0.03300
C509        C  0.96823792  0.88223183  0.60097916    -0.09900
C510        C  0.50583037  0.85253767  0.60106924     0.06300
C511        C  0.54500006  0.86144548  0.63310764    -0.03700
C512        C  0.54475882  0.89830839  0.66543380    -0.08100
C513        C  0.50637509  0.92765852  0.66658379     0.05400
C514        C  0.96836075  0.91945183  0.63222094    -0.03100
Br515      Br  0.91488360  0.95760782  0.62469187    -0.02800
H516        H  0.93844017  0.87688945  0.57561873     0.09300
H517        H  0.57540413  0.90336322  0.68915317     0.07300
Br518      Br  0.59985520  0.82462854  0.63622168    -0.03300
C519        C  0.52321043  0.65512172  0.65161267    -0.09900
C520        C  0.98640006  0.65964167  0.61565979     0.06300
C521        C  0.94987564  0.62927997  0.61515581    -0.03700
C522        C  0.95277858  0.59382315  0.64718582    -0.08100
C523        C  0.99095408  0.58809121  0.68077037     0.05400
C524        C  0.52546190  0.61992146  0.68435233    -0.03100
Br525      Br  0.57844397  0.61483158  0.72971637    -0.02800
H526        H  0.55126704  0.67830116  0.65303446     0.09300
H527        H  0.92608707  0.56936188  0.64416614     0.07300
Br528      Br  0.89765559  0.63111584  0.56808387    -0.03300
loop_ 
_geom_bond_atom_site_label_1 
_geom_bond_atom_site_label_2 
_geom_bond_distance 
_geom_bond_site_symmetry_2 
_ccdc_geom_bond_type 
O1           Cu9   2.000       .  S
O1          C275   1.278   1_455  A
O2           Cu9   2.000       .  S
O2           C12   1.275       .  A
O3           Cu9   2.013       .  S
O3           C13   1.279   1_455  A
O4           Cu9   2.010       .  S
O4          C278   1.278       .  A
O5          Cu10   2.008       .  S
O5           C14   1.277       .  A
O6          Cu10   2.012       .  S
O6          C277   1.277       .  A
O7          Cu10   2.016       .  S
O7          C276   1.281       .  A
O8          Cu10   2.015       .  S
O8           C11   1.277       .  A
Cu9        Cu274   2.368   1_455  S
Cu10       Cu273   2.368       .  S
C11         O265   1.278       .  A
C11         C368   1.488       .  S
C12         O271   1.281   1_455  A
C12         C114   1.487       .  S
C13         O270   1.277       .  A
C13         C388   1.484       .  S
C14         O268   1.278       .  A
C14          C97   1.477       .  S
C15          C16   1.544       .  S
C15         C153   1.535       .  S
C15         C283   1.539       .  S
C15          C94   1.541       .  S
C16          H23   1.080       .  S
C16         C149   1.368       .  D
C17          C18   1.541   1_565  S
C17         C148   1.368       .  D
C17          C84   1.488   1_565  S
C18         C286   1.538       .  S
C18         C284   1.546   1_545  S
C18          H24   1.110       .  S
C19         C279   1.539       .  S
C19          H25   1.085       .  S
C19         C152   1.370       .  D
C20         C282   1.546   1_565  S
C20         C151   1.370       .  D
C20          C77   1.498   1_565  S
C21         C147   1.535       .  S
C21          H26   1.087       .  S
C21         C286   1.360   1_565  D
C22         C282   1.538   1_655  S
C22         C285   1.360   1_545  D
C22         C107   1.476       .  S
C27          C28   1.547       .  S
C27         C165   1.530       .  S
C27         C295   1.534   1_455  S
C27         C117   1.537       .  S
C28          H35   1.082       .  S
C28         C161   1.371       .  D
C29          C30   1.545   1_455  S
C29         C160   1.371   1_545  D
C29          C54   1.493       .  S
C30         C298   1.541       .  S
C30         C296   1.545       .  S
C30          H36   1.109       .  S
C31         C291   1.534       .  S
C31          H37   1.087       .  S
C31         C164   1.364       .  D
C32         C294   1.545       .  S
C32         C163   1.364   1_545  D
C32          C64   1.486       .  S
C33         C159   1.530   1_545  S
C33          H38   1.087       .  S
C33         C298   1.361   1_455  D
C34         C294   1.541       .  S
C34         C297   1.361       .  D
C34         C127   1.480       .  S
O39         Cu47   2.034       .  S
O39          C49   1.280       .  A
O40         Cu47   2.029   1_556  S
O40          C50   1.281       .  A
O41         Cu47   2.017   1_556  S
O41          C51   1.277       .  A
O42         Cu47   2.024       .  S
O42          C52   1.280       .  A
O43         Cu48   2.005       .  S
O43         C184   1.277       .  A
O44         Cu48   2.007   1_556  S
O44         C183   1.277       .  A
O45         Cu48   1.998   1_556  S
O45         C182   1.275       .  A
O46         Cu48   2.003       .  S
O46         C181   1.276       .  A
Cu47       Cu180   2.371   1_545  S
Cu48       Cu179   2.371       .  S
C49         O178   1.276   1_545  A
C49          C74   1.476       .  S
C50         O177   1.275   1_545  A
C50          C67   1.487       .  S
C51         O176   1.277   1_545  A
C51          C57   1.469       .  S
C52         O175   1.277   1_545  A
C52          C87   1.486       .  S
C53          C58   1.400       .  A
C53         C186   1.408       .  A
C53          H60   1.083       .  S
C54          C55   1.416       .  A
C54         C185   1.408       .  A
C55          C56   1.399       .  A
C55         Br62   1.912       .  S
C56          C57   1.397       .  A
C56          H61   1.080       .  S
C57         C190   1.404       .  A
C58         C189   1.404       .  A
C58         Br59   1.919       .  S
C63          C64   1.402   1_565  A
C63          C68   1.395       .  A
C63          H70   1.084       .  S
C64          C65   1.408       .  A
C65          C66   1.403       .  A
C65        Br204   1.916       .  S
C66          C67   1.407       .  A
C66         H203   1.083       .  S
C67          C68   1.416   1_545  A
C68         Br69   1.919       .  S
H71         C198   1.083       .  S
Br72        C197   1.916       .  S
C73          C74   1.399       .  A
C73          C78   1.399       .  A
C73          H80   1.084   1_545  S
C74          C75   1.406       .  A
C75          C76   1.403       .  A
C75         Br82   1.914       .  S
C76          C77   1.408       .  A
C76          H81   1.083       .  S
C77          C78   1.418       .  A
C78        Br211   1.917   1_545  S
Br79        C210   1.917       .  S
C83          C84   1.402   1_565  A
C83          C88   1.395       .  A
C83          H90   1.084       .  S
C84          C85   1.410       .  A
C85          C86   1.404       .  A
C85         Br92   1.913       .  S
C86          C87   1.407       .  A
C86          H91   1.083       .  S
C87          C88   1.414   1_545  A
C88         Br89   1.918       .  S
C93          C94   1.415       .  A
C93          C98   1.400       .  A
C93         H100   1.075       .  S
C94         C359   1.422       .  A
C95          C96   1.398       .  A
C95         C358   1.422       .  A
C95        Br102   1.921       .  S
C96         C361   1.398       .  A
C96         H101   1.084       .  S
C97          C98   1.406       .  A
C97         C360   1.398       .  A
C98         Br99   1.921       .  S
C103        C104   1.408   1_455  A
C103        C108   1.394       .  A
C103        H110   1.083       .  S
C104        C275   1.488       .  S
C104        C369   1.418       .  A
C105        C106   1.402       .  A
C105        C368   1.418       .  A
C105       Br112   1.921       .  S
C106        C371   1.402       .  A
C106        H111   1.084       .  S
C107        C108   1.402   1_655  A
C107        C370   1.402       .  A
C108       Br109   1.914       .  S
C113        C118   1.395       .  A
C113        C378   1.401       .  A
C113        H120   1.084       .  S
C114        C115   1.415       .  A
C114        C377   1.401   1_455  A
C115        C116   1.402       .  A
C115       Br122   1.923       .  S
C116        C117   1.412       .  A
C116        H121   1.077       .  S
C117        C382   1.421   1_455  A
C118        C381   1.421       .  A
C118       Br119   1.926       .  S
C123        C128   1.402       .  A
C123        C388   1.408   1_455  A
C123        H130   1.083       .  S
C124        C277   1.484       .  S
C124        C125   1.414       .  A
C124        C387   1.408       .  A
C125        C126   1.397       .  A
C125       Br132   1.921       .  S
C126        C127   1.402       .  A
C126        H131   1.084       .  S
C127        C392   1.406       .  A
C128        C391   1.406   1_455  A
C128       Br129   1.916       .  S
O133       Cu141   2.000       .  S
O133        C407   1.278   1_455  A
O134       Cu141   2.000       .  S
O134        C144   1.275       .  A
O135       Cu141   2.013       .  S
O135        C145   1.279   1_455  A
O136       Cu141   2.010       .  S
O136        C410   1.278       .  A
O137       Cu142   2.008       .  S
O137        C146   1.277       .  A
O138       Cu142   2.012       .  S
O138        C409   1.277       .  A
O139       Cu142   2.016       .  S
O139        C408   1.281       .  A
O140       Cu142   2.015       .  S
O140        C143   1.277       .  A
Cu141      Cu406   2.368   1_455  S
Cu142      Cu405   2.368       .  S
C143        O397   1.278       .  A
C143        C500   1.488       .  S
C144        O403   1.281   1_455  A
C144        C246   1.487       .  S
C145        O402   1.277       .  A
C145        C520   1.484       .  S
C146        O400   1.278       .  A
C146        C229   1.477       .  S
C147        C148   1.544       .  S
C147        C415   1.539       .  S
C147        C226   1.541       .  S
C148        H155   1.080       .  S
C149        C150   1.541       .  S
C149        C216   1.488       .  S
C150        C418   1.538       .  S
C150        C416   1.546       .  S
C150        H156   1.110       .  S
C151        C411   1.539       .  S
C151        H157   1.085       .  S
C152        C414   1.546       .  S
C152        C209   1.498       .  S
C153        H158   1.087       .  S
C153        C418   1.360       .  D
C154        C414   1.538   1_655  S
C154        C417   1.360       .  D
C154        C239   1.476       .  S
C159        C160   1.547       .  S
C159        C427   1.534   1_455  S
C159        C249   1.537       .  S
C160        H167   1.082       .  S
C161        C162   1.545   1_455  S
C161        C186   1.493       .  S
C162        C430   1.541       .  S
C162        C428   1.545       .  S
C162        H168   1.109       .  S
C163        C423   1.534       .  S
C163        H169   1.087       .  S
C164        C426   1.545       .  S
C164        C196   1.486       .  S
C165        H170   1.087       .  S
C165        C430   1.361   1_455  D
C166        C426   1.541       .  S
C166        C429   1.361       .  D
C166        C259   1.480       .  S
O171       Cu179   2.034       .  S
O171        C181   1.280       .  A
O172       Cu179   2.029   1_556  S
O172        C182   1.281       .  A
O173       Cu179   2.017   1_556  S
O173        C183   1.277       .  A
O174       Cu179   2.024       .  S
O174        C184   1.280       .  A
O175       Cu180   2.005       .  S
O176       Cu180   2.007   1_556  S
O177       Cu180   1.998   1_556  S
O178       Cu180   2.003       .  S
C181        C206   1.476       .  S
C182        C199   1.487       .  S
C183        C189   1.469       .  S
C184        C219   1.487       .  S
C185        C190   1.400       .  A
C185        H192   1.083       .  S
C186        C187   1.416       .  A
C187        C188   1.399       .  A
C187       Br194   1.912       .  S
C188        C189   1.397       .  A
C188        H193   1.080       .  S
C190       Br191   1.919       .  S
C195        C196   1.402       .  A
C195        C200   1.395       .  A
C195        H202   1.084       .  S
C196        C197   1.408       .  A
C197        C198   1.403       .  A
C198        C199   1.407       .  A
C199        C200   1.416       .  A
C200       Br201   1.919       .  S
C205        C206   1.399       .  A
C205        C210   1.399       .  A
C205        H212   1.084       .  S
C206        C207   1.406       .  A
C207        C208   1.403       .  A
C207       Br214   1.914       .  S
C208        C209   1.408       .  A
C208        H213   1.083       .  S
C209        C210   1.418       .  A
C215        C216   1.402       .  A
C215        C220   1.395       .  A
C215        H222   1.084       .  S
C216        C217   1.410       .  A
C217        C218   1.404       .  A
C217       Br224   1.914       .  S
C218        C219   1.407       .  A
C218        H223   1.083       .  S
C219        C220   1.414       .  A
C220       Br221   1.918       .  S
C225        C226   1.415       .  A
C225        C230   1.400       .  A
C225        H232   1.075       .  S
C226        C491   1.422       .  A
C227        C490   1.422       .  A
C227        C228   1.398       .  A
C227       Br234   1.921       .  S
C228        C493   1.398       .  A
C228        H233   1.084       .  S
C229        C492   1.398       .  A
C229        C230   1.406       .  A
C230       Br231   1.921       .  S
C235        C236   1.408   1_455  A
C235        C240   1.394       .  A
C235        H242   1.083       .  S
C236        C407   1.488       .  S
C236        C501   1.418       .  A
C237        C500   1.418       .  A
C237        C238   1.402       .  A
C237       Br244   1.921       .  S
C238        C503   1.402       .  A
C238        H243   1.084       .  S
C239        C502   1.402       .  A
C239        C240   1.402   1_655  A
C240       Br241   1.914       .  S
C245        C510   1.401       .  A
C245        C250   1.395       .  A
C245        H252   1.084       .  S
C246        C509   1.401   1_455  A
C246        C247   1.415       .  A
C247        C248   1.402       .  A
C247       Br254   1.923       .  S
C248        C249   1.412       .  A
C248        H253   1.077       .  S
C249        C514   1.421   1_455  A
C250        C513   1.421       .  A
C250       Br251   1.926       .  S
C255        C520   1.408   1_455  A
C255        C260   1.402       .  A
C255        H262   1.083       .  S
C256        C409   1.484       .  S
C256        C519   1.408       .  A
C256        C257   1.414       .  A
C257        C258   1.397       .  A
C257       Br264   1.921       .  S
C258        C259   1.402       .  A
C258        H263   1.084       .  S
C259        C524   1.406       .  A
C260        C523   1.406   1_455  A
C260       Br261   1.916       .  S
O265       Cu273   2.000       .  S
O266       Cu273   2.000       .  S
O266        C276   1.275       .  A
O267       Cu273   2.013       .  S
O267        C277   1.279       .  A
O268       Cu273   2.010       .  S
O269       Cu274   2.008       .  S
O269        C278   1.277   1_655  A
O270       Cu274   2.012       .  S
O271       Cu274   2.016       .  S
O272       Cu274   2.015       .  S
O272        C275   1.277       .  A
C276        C378   1.487       .  S
C278        C361   1.477       .  S
C279        C280   1.544   1_455  S
C279        C417   1.535   1_455  S
C279        C358   1.541       .  S
C280        H287   1.080       .  S
C280        C413   1.368       .  D
C281        C282   1.541   1_665  S
C281        C412   1.368       .  D
C281        C348   1.488   1_565  S
C282        H288   1.110       .  S
C283        H289   1.085       .  S
C283        C416   1.370       .  D
C284        C415   1.370       .  D
C284        C341   1.498   1_565  S
C285        C411   1.535   1_655  S
C285        H290   1.087       .  S
C286        C371   1.476       .  S
C291        C292   1.547       .  S
C291        C429   1.530       .  S
C291        C381   1.537       .  S
C292        H299   1.082       .  S
C292        C425   1.371       .  D
C293        C294   1.545       .  S
C293        C424   1.371   1_545  D
C293        C318   1.493       .  S
C294        H300   1.109       .  S
C295        H301   1.087       .  S
C295        C428   1.364       .  D
C296        C427   1.364   1_545  D
C296        C328   1.486       .  S
C297        C423   1.530   1_545  S
C297        H302   1.087       .  S
C298        C391   1.480       .  S
O303       Cu311   2.034       .  S
O303        C313   1.280       .  A
O304       Cu311   2.029   1_556  S
O304        C314   1.281       .  A
O305       Cu311   2.017   1_556  S
O305        C315   1.277       .  A
O306       Cu311   2.024       .  S
O306        C316   1.280       .  A
O307       Cu312   2.005       .  S
O307        C448   1.277       .  A
O308       Cu312   2.007   1_556  S
O308        C447   1.277       .  A
O309       Cu312   1.998   1_556  S
O309        C446   1.275       .  A
O310       Cu312   2.003       .  S
O310        C445   1.276       .  A
Cu311      Cu444   2.371   1_545  S
Cu312      Cu443   2.371       .  S
C313        O442   1.276   1_545  A
C313        C338   1.476       .  S
C314        O441   1.275   1_545  A
C314        C331   1.487       .  S
C315        O440   1.277   1_545  A
C315        C321   1.469       .  S
C316        O439   1.277   1_545  A
C316        C351   1.486       .  S
C317        C450   1.408       .  A
C317        C322   1.400       .  A
C317        H324   1.083       .  S
C318        C449   1.408       .  A
C318        C319   1.416       .  A
C319        C320   1.399       .  A
C319       Br326   1.912       .  S
C320        C321   1.397       .  A
C320        H325   1.080       .  S
C321        C454   1.404       .  A
C322        C453   1.404       .  A
C322       Br323   1.919       .  S
C327        C328   1.402   1_565  A
C327        C332   1.395       .  A
C327        H334   1.084       .  S
C328        C329   1.408       .  A
C329        C330   1.403       .  A
C329       Br468   1.916       .  S
C330        C331   1.407       .  A
C330        H467   1.083       .  S
C331        C332   1.416   1_545  A
C332       Br333   1.919       .  S
H335        C462   1.083       .  S
Br336       C461   1.916       .  S
C337        C338   1.399       .  A
C337        C342   1.399       .  A
C337        H344   1.084   1_545  S
C338        C339   1.406       .  A
C339        C340   1.403       .  A
C339       Br346   1.914       .  S
C340        C341   1.408       .  A
C340        H345   1.083       .  S
C341        C342   1.418       .  A
C342       Br475   1.917   1_545  S
Br343       C474   1.917       .  S
C347        C348   1.402   1_565  A
C347        C352   1.395       .  A
C347        H354   1.084       .  S
C348        C349   1.410       .  A
C349        C350   1.404       .  A
C349       Br356   1.913       .  S
C350        C351   1.407       .  A
C350        H355   1.083       .  S
C351        C352   1.414   1_545  A
C352       Br353   1.918       .  S
C357        C358   1.415   1_655  A
C357        C362   1.400       .  A
C357        H364   1.075       .  S
C359        C360   1.398       .  A
C359       Br366   1.921       .  S
C360        H365   1.084       .  S
C361        C362   1.406   1_455  A
C362       Br363   1.921       .  S
C367        C368   1.408       .  A
C367        C372   1.394       .  A
C367        H374   1.083       .  S
C369        C370   1.402       .  A
C369       Br376   1.921       .  S
C370        H375   1.084       .  S
C371        C372   1.402       .  A
C372       Br373   1.914       .  S
C377        C382   1.395       .  A
C377        H384   1.084       .  S
C378        C379   1.415       .  A
C379        C380   1.402       .  A
C379       Br386   1.923       .  S
C380        C381   1.412       .  A
C380        H385   1.077       .  S
C382       Br383   1.926       .  S
C387        C392   1.402       .  A
C387        H394   1.083       .  S
C388        C389   1.414       .  A
C389        C390   1.397       .  A
C389       Br396   1.921       .  S
C390        C391   1.402       .  A
C390        H395   1.084       .  S
C392       Br393   1.916       .  S
O397       Cu405   2.000       .  S
O398       Cu405   2.000       .  S
O398        C408   1.275       .  A
O399       Cu405   2.013       .  S
O399        C409   1.279       .  A
O400       Cu405   2.010       .  S
O401       Cu406   2.008       .  S
O401        C410   1.277   1_655  A
O402       Cu406   2.012       .  S
O403       Cu406   2.016       .  S
O404       Cu406   2.015       .  S
O404        C407   1.277       .  A
C408        C510   1.487       .  S
C410        C493   1.477       .  S
C411        C412   1.544   1_455  S
C411        C490   1.541       .  S
C412        H419   1.080       .  S
C413        C414   1.541   1_655  S
C413        C480   1.488       .  S
C414        H420   1.110       .  S
C415        H421   1.085       .  S
C416        C473   1.498       .  S
C417        H422   1.087       .  S
C418        C503   1.476       .  S
C423        C424   1.547       .  S
C423        C513   1.537       .  S
C424        H431   1.082       .  S
C425        C426   1.545       .  S
C425        C450   1.493       .  S
C426        H432   1.109       .  S
C427        H433   1.087       .  S
C428        C460   1.486       .  S
C429        H434   1.087       .  S
C430        C523   1.480       .  S
O435       Cu443   2.034       .  S
O435        C445   1.280       .  A
O436       Cu443   2.029   1_556  S
O436        C446   1.281       .  A
O437       Cu443   2.017   1_556  S
O437        C447   1.277       .  A
O438       Cu443   2.024       .  S
O438        C448   1.280       .  A
O439       Cu444   2.005       .  S
O440       Cu444   2.007   1_556  S
O441       Cu444   1.998   1_556  S
O442       Cu444   2.003       .  S
C445        C470   1.476       .  S
C446        C463   1.487       .  S
C447        C453   1.469       .  S
C448        C483   1.487       .  S
C449        C454   1.400       .  A
C449        H456   1.083       .  S
C450        C451   1.416       .  A
C451        C452   1.399       .  A
C451       Br458   1.912       .  S
C452        C453   1.397       .  A
C452        H457   1.080       .  S
C454       Br455   1.919       .  S
C459        C460   1.402       .  A
C459        C464   1.395       .  A
C459        H466   1.084       .  S
C460        C461   1.408       .  A
C461        C462   1.403       .  A
C462        C463   1.407       .  A
C463        C464   1.416       .  A
C464       Br465   1.919       .  S
C469        C470   1.399       .  A
C469        C474   1.399       .  A
C469        H476   1.084       .  S
C470        C471   1.406       .  A
C471        C472   1.403       .  A
C471       Br478   1.914       .  S
C472        C473   1.408       .  A
C472        H477   1.083       .  S
C473        C474   1.418       .  A
C479        C480   1.402       .  A
C479        C484   1.395       .  A
C479        H486   1.084       .  S
C480        C481   1.410       .  A
C481        C482   1.404       .  A
C481       Br488   1.914       .  S
C482        C483   1.407       .  A
C482        H487   1.083       .  S
C483        C484   1.414       .  A
C484       Br485   1.918       .  S
C489        C490   1.415   1_655  A
C489        C494   1.400       .  A
C489        H496   1.075       .  S
C491        C492   1.398       .  A
C491       Br498   1.921       .  S
C492        H497   1.084       .  S
C493        C494   1.406   1_455  A
C494       Br495   1.921       .  S
C499        C500   1.408       .  A
C499        C504   1.394       .  A
C499        H506   1.083       .  S
C501        C502   1.402       .  A
C501       Br508   1.921       .  S
C502        H507   1.084       .  S
C503        C504   1.402       .  A
C504       Br505   1.914       .  S
C509        C514   1.395       .  A
C509        H516   1.084       .  S
C510        C511   1.415       .  A
C511        C512   1.402       .  A
C511       Br518   1.923       .  S
C512        C513   1.412       .  A
C512        H517   1.077       .  S
C514       Br515   1.926       .  S
C519        C524   1.402       .  A
C519        H526   1.083       .  S
C520        C521   1.414       .  A
C521        C522   1.398       .  A
C521       Br528   1.921       .  S
C522        C523   1.402       .  A
C522        H527   1.084       .  S
C524       Br525   1.916       .  S
