geometry optimzed in LAMMPS
_audit_creation_date              2020-11-30 
_audit_creation_method            'lammps2cif' 
_symmetry_space_group_name_H-M    'P1' 
_symmetry_Int_Tables_number       1 
_symmetry_cell_setting            triclinic 
loop_ 
_symmetry_equiv_pos_as_xyz 
  x,y,z 
_cell_length_a                    45.29761776 
_cell_length_b                    44.06341109194213 
_cell_length_c                    45.84047066908674 
_cell_angle_alpha                 89.20379017874475 
_cell_angle_beta                  77.70849677470264 
_cell_angle_gamma                 88.8146250047855 
loop_ 
_atom_site_label 
_atom_site_type_symbol 
_atom_site_fract_x 
_atom_site_fract_y 
_atom_site_fract_z 
_atom_site_charge 
O1          O  0.08336545  0.49066532  0.49940052    -0.80900
O2          O  0.45903253  0.48058506  0.46151945    -0.65600
O3          O  0.03414640  0.00921075  0.47887852    -1.12200
C4          C  0.96364579  0.99431545  0.09048994     1.06000
O5          O  0.42144389  0.01900463  0.00660513    -0.78800
O6          O  0.44385097  0.05088803  0.04581948    -0.66400
Ni7        Ni  0.06811540  0.48154324  0.46450912     1.34900
C8          C  0.46965716  0.06257559  0.03791745     0.84700
O9          O  0.51193404  0.49329547  0.42623649    -0.79400
O10         O  0.05711568  0.47032893  0.42768255    -0.89600
C11         C  0.43670903  0.99993057  0.47616178     0.84300
O12         O  0.05059409  0.44598333  0.48421584    -0.67800
O13         O  0.43793445  0.00151632  0.08376120    -0.87100
C14         C  0.02589946  0.43441433  0.48189328     0.85100
C15         C  0.53627260  0.48025710  0.41310054     1.06700
H16         H  0.46910537  0.46758474  0.02227269     0.38500
O17         O  0.47125619  0.48876966  0.01669738    -1.09800
O18         O  0.99505208  0.04658456  0.03196996    -0.66400
Ni19       Ni  0.00530488  0.00449794  0.03356519     1.26300
O20         O  0.50652283  0.45106615  0.46995715    -0.66700
O21         O  0.98955836  0.00197922  0.07556445    -0.79000
C22         C  0.06775337  0.49984904  0.02669364     0.84500
O23         O  0.04245915  0.01766254  0.04073471    -0.66100
Ni24       Ni  0.43067626  0.01006306  0.04481039     1.27400
Ni25       Ni  0.49677814  0.49353595  0.46783483     1.26100
H26         H  0.03778905  0.02955674  0.47082291     0.39000
O27         O  0.00663059  0.96086553  0.20362737    -0.74500
O28         O  0.04169485  0.45933917  0.27233983    -0.74500
O29         O  0.02755531  0.41949781  0.23292821    -0.74500
O30         O  0.02016752  0.00598444  0.23786812    -0.74600
O31         O  0.48097619  0.01571315  0.27147971    -0.74500
O32         O  0.47744804  0.42907005  0.25941792    -0.74500
O33         O  0.49228459  0.46939325  0.29733091    -0.74500
O34         O  0.46663316  0.97514617  0.23311544    -0.74500
Ni35       Ni  0.02425016  0.96216635  0.23765522     1.25400
Ni36       Ni  0.47495078  0.47266571  0.26301699     1.25400
C37         C  0.48491211  0.97840953  0.20796187     0.87700
C38         C  0.52089798  0.46922429  0.29543582     0.87700
C39         C  0.50134737  0.41505989  0.24550922     0.87700
C40         C  0.50365324  0.03168517  0.25898489     0.87900
O41         O  0.21909404  0.04337484  0.50259168    -0.74500
O42         O  0.30335024  0.03053721  0.47768004    -0.74500
O43         O  0.25770494  0.03630815  0.44729874    -0.74500
O44         O  0.25204004  0.03158171  0.03498896    -0.74600
O45         O  0.25042548  0.48171755  0.03775904    -0.74500
O46         O  0.25046047  0.48531642  0.45141294    -0.74500
O47         O  0.28993916  0.48052167  0.98245266    -0.74500
O48         O  0.20497112  0.48334058  0.00734700    -0.74500
Ni49       Ni  0.26138528  0.03836877  0.48991305     1.25400
Ni50       Ni  0.24746644  0.48016292  0.99496055     1.25400
C51         C  0.19037649  0.00917886  0.01164677     0.87700
C52         C  0.31458266  0.00375628  0.47444095     0.87700
C53         C  0.25474760  0.01107565  0.43402597     0.87700
C54         C  0.25130217  0.00667834  0.05049621     0.87900
O55         O  0.99808357  0.20525721  0.48709973    -0.74500
O56         O  0.00431261  0.29110911  0.47595990    -0.74500
O57         O  0.04417454  0.24602987  0.48332314    -0.74500
O58         O  0.45779054  0.25211165  0.48002942    -0.74600
O59         O  0.43419854  0.25489784  0.02884013    -0.74500
O60         O  0.01999554  0.25217123  0.03450499    -0.74500
O61         O  0.47995754  0.29544113  0.02413420    -0.74500
O62         O  0.47484924  0.20971650  0.03695957    -0.74500
Ni63       Ni  0.00154246  0.24797224  0.47973077     1.25400
Ni64       Ni  0.47693008  0.25296947  0.03216447     1.25400
C65         C  0.99118277  0.19445961  0.51368530     0.87700
C66         C  0.99912436  0.30817285  0.49892258     0.87700
C67         C  0.05245661  0.24978455  0.50829291     0.87700
C68         C  0.43701817  0.25597273  0.50386749     0.87900
O69         O  0.46151058  0.22668015  0.29353861    -0.74500
O70         O  0.04820256  0.20733128  0.26245894    -0.74500
O71         O  0.50542702  0.26776079  0.27952055    -0.74500
O72         O  0.50264506  0.17982885  0.28298813    -0.74600
O73         O  0.00079202  0.16893112  0.22568574    -0.74500
O74         O  0.00586680  0.25627917  0.22560540    -0.74500
O75         O  0.04644801  0.20939264  0.21423116    -0.74500
O76         O  0.45874177  0.22604480  0.24542725    -0.74500
Ni77       Ni  0.50418825  0.22381541  0.28317849     1.25400
Ni78       Ni  0.00337757  0.21261460  0.22403738     1.25400
C79         C  0.44645310  0.22900083  0.27310697     0.87700
C80         C  0.06142532  0.20834684  0.23491107     0.87700
C81         C  0.50390410  0.28197303  0.25516907     0.87700
C82         C  0.50178261  0.16515241  0.25914090     0.87900
O83         O  0.33362833  0.24523341  0.23944068    -0.80900
O84         O  0.19991505  0.24453581  0.22536250    -0.65600
O85         O  0.27816731  0.26611397  0.23126047    -1.12200
C86         C  0.24130516  0.27605843  0.33207205     1.06000
O87         O  0.17223066  0.25722407  0.26998941    -0.78800
O88         O  0.21026680  0.30630190  0.26794405    -0.66400
Ni89       Ni  0.31033253  0.24158717  0.20926489     1.34900
C90         C  0.23510192  0.31965799  0.26698768     0.84700
O91         O  0.24779023  0.26194804  0.18714568    -0.79400
O92         O  0.29043759  0.23492183  0.17623838    -0.89600
C93         C  0.17544174  0.24535751  0.24445666     0.84300
O94         O  0.29480137  0.20490387  0.22782467    -0.67800
O95         O  0.21997331  0.28815519  0.32192348    -0.87100
C96         C  0.26892754  0.19482158  0.22744738     0.85100
C97         C  0.26648016  0.24568803  0.16931476     1.06700
H98         H  0.22967318  0.22811397  0.27655311     0.38500
O99         O  0.23161883  0.24935587  0.27090794    -1.09800
O100        O  0.25794554  0.30585086  0.27388763    -0.66400
Ni101      Ni  0.27004991  0.26316625  0.27352406     1.26300
O102        O  0.24725391  0.21216283  0.22377365    -0.66700
O103        O  0.26130381  0.25981046  0.31569308    -0.79000
C104        C  0.33195225  0.26047166  0.26315452     0.84500
O105        O  0.30893006  0.27570351  0.27548449    -0.66100
Ni106      Ni  0.19857989  0.27232285  0.29356834     1.27400
Ni107      Ni  0.23898456  0.25531407  0.22850545     1.26100
H108        H  0.28165739  0.28687728  0.22460494     0.39000
O109        O  0.25361053  0.24590184  0.45754132    -0.74500
O110        O  0.23326237  0.21837310  0.03922300    -0.74500
O111        O  0.19309914  0.22921960  0.00171454    -0.74500
O112        O  0.28071897  0.23498236  0.99614184    -0.74600
O113        O  0.28529052  0.28226717  0.51142098    -0.74500
O114        O  0.19761936  0.27626182  0.51546695    -0.74500
O115        O  0.22607033  0.26644495  0.05430933    -0.74500
O116        O  0.24639387  0.29376985  0.47330953    -0.74500
Ni117      Ni  0.23721327  0.23045005  0.99852063     1.25400
Ni118      Ni  0.24118138  0.28106045  0.51391204     1.25400
C119        C  0.25114150  0.27429474  0.45240505     0.87700
C120        C  0.23034822  0.23837062  0.05958202     0.87700
C121        C  0.17511858  0.25225031  0.00930470     0.87700
C122        C  0.30335679  0.25934110  0.50342695     0.87900
O123        O  0.23059902  0.05382504  0.24521068    -0.74500
O124        O  0.22199637  0.46630902  0.25274202    -0.74500
O125        O  0.22582170  0.51198806  0.29244977    -0.74500
O126        O  0.22665289  0.00910687  0.20475006    -0.74600
O127        O  0.27659632  0.00552883  0.19396733    -0.74500
O128        O  0.27547834  0.50508486  0.28269826    -0.74500
O129        O  0.27209939  0.46122402  0.24146213    -0.74500
O130        O  0.28073336  0.04851973  0.23596027    -0.74500
Ni131      Ni  0.22428559  0.50974816  0.24942431     1.25400
Ni132      Ni  0.27853288  0.00548882  0.23719893     1.25400
C133        C  0.25695942  0.06530350  0.24016368     0.87700
C134        C  0.24595307  0.44957452  0.24880993     0.87700
C135        C  0.25052007  0.50924463  0.30230598     0.87700
C136        C  0.25146614  0.00704327  0.18464932     0.87900
C137        C  0.24374746  0.11400645  0.21961922    -0.05800
C138        C  0.25991263  0.09839757  0.23812941     0.00100
C139        C  0.27860043  0.11441801  0.25350798    -0.08500
C140        C  0.27996715  0.14605810  0.25002980    -0.05800
C141        C  0.26422302  0.16179325  0.23105065     0.00100
C142        C  0.24618014  0.14546259  0.21499397    -0.08400
C143        C  0.23126625  0.16033942  0.19153047     0.62000
H144        H  0.22996477  0.10100805  0.20787817     0.12700
H145        H  0.29387717  0.15880854  0.26182673     0.12700
C146        C  0.29692526  0.09843657  0.27356824     0.62200
F147        F  0.21833600  0.13924479  0.17618589    -0.22900
F148        F  0.25270694  0.17560178  0.17090279    -0.20200
F149        F  0.20865844  0.18036646  0.20470050    -0.19900
F150        F  0.31975880  0.08101636  0.25649485    -0.20000
F151        F  0.27852191  0.07996909  0.29398193    -0.20300
F152        F  0.31014178  0.11884588  0.28937967    -0.23000
C153        C  0.25785477  0.36859553  0.27361622    -0.05800
C154        C  0.23722114  0.35284279  0.26077538     0.00100
C155        C  0.21932286  0.36924692  0.24365916    -0.08500
C156        C  0.22274322  0.40093055  0.24046136    -0.05800
C157        C  0.24357199  0.41636820  0.25321684     0.00100
C158        C  0.26128948  0.40003369  0.27035661    -0.08400
C159        C  0.28259027  0.41572835  0.28661848     0.62000
H160        H  0.27110995  0.35607325  0.28694753     0.12700
H161        H  0.20928799  0.41398901  0.22769874     0.12700
C162        C  0.19736803  0.35370066  0.22809380     0.62200
F163        F  0.29423949  0.39603141  0.30529940    -0.22900
F164        F  0.26708096  0.43871132  0.30397580    -0.20200
F165        F  0.30668945  0.42762145  0.26631466    -0.19900
F166        F  0.17342614  0.34232303  0.24898965    -0.20000
F167        F  0.21209318  0.33031216  0.21063501    -0.20300
F168        F  0.18554972  0.37354719  0.20966679    -0.23000
C169        C  0.22664388  0.23938793  0.14111733    -0.05800
C170        C  0.25779582  0.23739436  0.14114943     0.00100
C171        C  0.27842681  0.22774337  0.11494586    -0.08500
C172        C  0.26736478  0.22446811  0.08879236    -0.05800
C173        C  0.23693734  0.23046576  0.08841218     0.00100
C174        C  0.21591233  0.23634881  0.11497643    -0.08400
C175        C  0.18248556  0.24012152  0.11537287     0.62000
H176        H  0.21058734  0.24466301  0.16158513     0.12700
H177        H  0.28285367  0.21963313  0.06781286     0.12700
C178        C  0.31181539  0.22193242  0.11391704     0.62200
F179        F  0.16541543  0.24060627  0.14420706    -0.22900
F180        F  0.17303820  0.21609627  0.10076450    -0.20200
F181        F  0.17714387  0.26697968  0.10126135    -0.19900
F182        F  0.31522709  0.19812077  0.13297953    -0.20000
F183        F  0.32469208  0.24771229  0.12228860    -0.20300
F184        F  0.32750703  0.21419336  0.08557354    -0.23000
C185        C  0.27276220  0.27919249  0.36952540    -0.05800
C186        C  0.24383578  0.28195030  0.36301552     0.00100
C187        C  0.21835592  0.28838374  0.38636596    -0.08500
C188        C  0.22283393  0.28966770  0.41561845    -0.05800
C189        C  0.25123048  0.28389061  0.42201474     0.00100
C190        C  0.27691837  0.28009745  0.39882373    -0.08400
C191        C  0.30886109  0.27640500  0.40383547     0.62000
H192        H  0.29235576  0.27538530  0.35162457     0.12700
H193        H  0.20369632  0.29267688  0.43413994     0.12700
C194        C  0.18633663  0.29191490  0.38121387     0.62200
F195        F  0.32698811  0.29795437  0.38698920    -0.22900
F196        F  0.32004786  0.24783701  0.39478328    -0.20200
F197        F  0.31058016  0.28008436  0.43333141    -0.19900
F198        F  0.17883133  0.26644599  0.36721959    -0.20000
F199        F  0.18423141  0.31742552  0.36379893    -0.20300
F200        F  0.16516964  0.29531057  0.40768622    -0.23000
C201        C  0.13726213  0.24357179  0.21410070    -0.05800
C202        C  0.14955201  0.23092374  0.23706520     0.00100
C203        C  0.13660771  0.20522514  0.25320726    -0.08500
C204        C  0.10929416  0.19501067  0.24790766    -0.05800
C205        C  0.09436867  0.21069132  0.22827428     0.00100
C206        C  0.10928782  0.23407556  0.20953268    -0.08400
C207        C  0.09483400  0.25071576  0.18679704     0.62000
H208        H  0.14856653  0.26254672  0.20148129     0.12700
H209        H  0.09776313  0.17668293  0.26142517     0.12700
C210        C  0.15085571  0.18949399  0.27673613     0.62200
F211        F  0.11385766  0.27198624  0.17055229    -0.22900
F212        F  0.06896622  0.26584682  0.20119226    -0.20200
F213        F  0.08768916  0.23017406  0.16694932    -0.19900
F214        F  0.15007587  0.20866517  0.30051347    -0.20000
F215        F  0.18054670  0.18149906  0.26453850    -0.20300
F216        F  0.13576828  0.16335126  0.28770757    -0.23000
C217        C  0.40977176  0.26933346  0.27248032    -0.05800
C218        C  0.41530952  0.23935135  0.28070185     0.00100
C219        C  0.39136758  0.21972198  0.29187702    -0.08500
C220        C  0.36225966  0.22945940  0.28992053    -0.05800
C221        C  0.35750628  0.25789877  0.27735044     0.00100
C222        C  0.38067488  0.27920915  0.27107051    -0.08400
C223        C  0.37495182  0.31119006  0.26075263     0.62000
H224        H  0.42871716  0.28412857  0.26473437     0.12700
H225        H  0.34365390  0.21383595  0.29516340     0.12700
C226        C  0.39694606  0.18817201  0.30340811     0.62200
F227        F  0.40011866  0.32908126  0.25861324    -0.22900
F228        F  0.35135789  0.32445359  0.28102620    -0.20200
F229        F  0.36748328  0.31046426  0.23305717    -0.19900
F230        F  0.41288664  0.19013358  0.32589094    -0.20000
F231        F  0.41350755  0.17087884  0.28046099    -0.20300
F232        F  0.37013877  0.17356038  0.31493333    -0.23000
C233        C  0.37224929  0.27412396  0.02215722    -0.05800
C234        C  0.40292298  0.25727827  0.50259650     0.00100
C235        C  0.38994468  0.24038111  0.48209647    -0.08500
C236        C  0.35804413  0.24188322  0.48335445    -0.05800
C237        C  0.33763720  0.26042797  0.50345029     0.00100
C238        C  0.34051139  0.27755245  0.02267247    -0.08400
C239        C  0.32190382  0.30006149  0.04415201     0.62000
H240        H  0.38221849  0.28743037  0.03710596     0.12700
H241        H  0.34868800  0.22856985  0.46796168     0.12700
C242        C  0.40946288  0.21999432  0.45908028     0.62200
F243        F  0.33882888  0.31347280  0.06213547    -0.22900
F244        F  0.29811569  0.28550070  0.06255088    -0.20200
F245        F  0.31081675  0.32288827  0.02821745    -0.19900
F246        F  0.39247518  0.20326096  0.44350760    -0.20000
F247        F  0.42568981  0.19983172  0.47311744    -0.20300
F248        F  0.42909958  0.23737745  0.43862075    -0.23000
C249        C  0.09676244  0.23440442  0.98886284    -0.05800
C250        C  0.07515360  0.24925615  0.01133173     0.00100
C251        C  0.09904635  0.26788320  0.52951378    -0.08500
C252        C  0.13102921  0.26740455  0.52829073    -0.05800
C253        C  0.14080411  0.25048766  0.00928436     0.00100
C254        C  0.12881578  0.23481669  0.98729250    -0.08400
C255        C  0.14985419  0.21947536  0.96119942     0.62000
H256        H  0.08825843  0.22214617  0.97217645     0.12700
H257        H  0.13989066  0.28072892  0.54402538     0.12700
C258        C  0.07879283  0.28829994  0.55201294     0.62200
F259        F  0.13450329  0.20938361  0.94020511    -0.22900
F260        F  0.16413430  0.19468025  0.97128457    -0.20200
F261        F  0.17127527  0.23976675  0.94707212    -0.19900
F262        F  0.05970558  0.27083054  0.57289240    -0.20000
F263        F  0.06189214  0.30745290  0.53750007    -0.20300
F264        F  0.09523700  0.30617867  0.56714936    -0.23000
C265        C  0.27300344  0.99288344  0.34716693    -0.05800
C266        C  0.25041866  0.51028645  0.33672173     0.00100
C267        C  0.23027423  0.52871552  0.35820968    -0.08500
C268        C  0.23202021  0.52829131  0.38939015    -0.05800
C269        C  0.25250119  0.50957447  0.40133376     0.00100
C270        C  0.27426688  0.99192264  0.37841098    -0.08400
C271        C  0.29777135  0.97160534  0.38838409     0.62000
H272        H  0.28863507  0.97892805  0.33155185     0.12700
H273        H  0.21666794  0.54246466  0.40504942     0.12700
C274        C  0.20715163  0.54963460  0.34832872     0.62200
F275        F  0.31654622  0.95725505  0.36456130    -0.22900
F276        F  0.28365237  0.94945672  0.40775753    -0.20200
F277        F  0.31554706  0.98871961  0.40269176    -0.19900
F278        F  0.18560348  0.53261544  0.33908210    -0.20000
F279        F  0.22120539  0.56806406  0.32506201    -0.20300
F280        F  0.19247152  0.56823888  0.37118995    -0.23000
C281        C  0.23536062  0.48564366  0.10604892    -0.05800
C282        C  0.25239790  0.00697298  0.08473400     0.00100
C283        C  0.27382669  0.02329558  0.09721450    -0.08500
C284        C  0.27334186  0.02201377  0.12894682    -0.05800
C285        C  0.25111390  0.00655916  0.15025719     0.00100
C286        C  0.23376508  0.48468594  0.13789921    -0.08400
C287        C  0.21352083  0.46170402  0.15693364     0.62000
H288        H  0.22204923  0.47004978  0.09650586     0.12700
H289        H  0.29014840  0.03413291  0.13754681     0.12700
C290        C  0.29767452  0.04195604  0.07690799     0.62200
F291        F  0.20012645  0.44277624  0.13985739    -0.22900
F292        F  0.19077109  0.47660021  0.17678240    -0.20200
F293        F  0.23033675  0.44382701  0.17265328    -0.19900
F294        F  0.28395288  0.06564210  0.06442973    -0.20000
F295        F  0.31392488  0.02390027  0.05441175    -0.20300
F296        F  0.31777498  0.05423466  0.09221178    -0.23000
C297        C  0.01796374  0.32003447  0.22234464    -0.05800
C298        C  0.50341950  0.31622408  0.25359859     0.00100
C299        C  0.49041988  0.33501549  0.27823535    -0.08500
C300        C  0.49006897  0.36687783  0.27415481    -0.05800
C301        C  0.50251110  0.38098813  0.24673159     0.00100
C302        C  0.01809583  0.35216325  0.21991214    -0.08400
C303        C  0.03042271  0.36716008  0.18988041     0.62000
H304        H  0.02680557  0.30665294  0.20271236     0.12700
H305        H  0.48050942  0.38131679  0.29285206     0.12700
C306        C  0.47652376  0.32193057  0.30880857     0.62200
F307        F  0.03733609  0.34617463  0.16712229    -0.22900
F308        F  0.05654608  0.38239089  0.19093588    -0.20200
F309        F  0.50743258  0.39572658  0.18302502    -0.19900
F310        F  0.00444318  0.29383683  0.31654609    -0.20000
F311        F  0.45526638  0.30061168  0.30633472    -0.20300
F312        F  0.46215079  0.34404550  0.32824061    -0.23000
C313        C  0.98241786  0.10439121  0.27438329    -0.05800
C314        C  0.50283487  0.13110701  0.25929382     0.00100
C315        C  0.52369700  0.11419541  0.23778144    -0.08500
C316        C  0.52323823  0.08217366  0.23909659    -0.05400
C317        C  0.50246512  0.06600793  0.26071870     0.00100
C318        C  0.97980493  0.07236158  0.27617770    -0.08400
C319        C  0.96058531  0.05822103  0.30410081     0.62000
H320        H  0.97073824  0.11826823  0.29272536     0.12700
H321        H  0.53910977  0.06942883  0.22256332     0.12700
C322        C  0.54706082  0.12977417  0.21383063     0.62200
F323        F  0.94931071  0.07972860  0.32555781    -0.22900
F324        F  0.97767334  0.03737879  0.31655249    -0.20200
F325        F  0.43822821  0.05280241  0.29596769    -0.19900
F326        F  0.05425743  0.13481884  0.20407114    -0.20000
F327        F  0.53289374  0.14517575  0.19401960    -0.20300
F328        F  0.56749629  0.10923917  0.19765047    -0.23000
C329        C  0.03464377  0.34871671  0.48168582    -0.05800
C330        C  0.00515180  0.34057594  0.49520742     0.00100
C331        C  0.47042618  0.36012241  0.99904688    -0.08500
C332        C  0.47820357  0.39063336  0.99369202    -0.05800
C333        C  0.02071984  0.40191665  0.48824939     0.00100
C334        C  0.04315604  0.37918426  0.47836274    -0.08400
C335        C  0.07570443  0.38665978  0.46402274     0.62000
H336        H  0.05116656  0.33078469  0.47428368     0.12700
H337        H  0.46078774  0.40810857  0.99897902     0.12700
C338        C  0.43781983  0.35150680  0.01132600     0.62200
F339        F  0.09278770  0.36086411  0.45437617    -0.22900
F340        F  0.08903002  0.40078362  0.48455982    -0.20200
F341        F  0.07662872  0.40555637  0.43953318    -0.19900
F342        F  0.43508856  0.33881721  0.03950753    -0.20000
F343        F  0.42893499  0.33065930  0.99274320    -0.20300
F344        F  0.41838656  0.37641830  0.01346623    -0.23000
C345        C  0.95756431  0.14787372  0.04934551    -0.05800
C346        C  0.47779395  0.15843177  0.01972737     0.00100
C347        C  0.50405692  0.14651149  0.53734629    -0.08500
C348        C  0.50060234  0.11492662  0.53972235    -0.05800
C349        C  0.47181150  0.09569933  0.03312811     0.00100
C350        C  0.95445747  0.11658933  0.05593090    -0.08400
C351        C  0.93191082  0.10624794  0.08357352     0.62000
H352        H  0.94293668  0.16412701  0.06327892     0.12700
H353        H  0.51314713  0.10158766  0.55317832     0.12700
C354        C  0.52586502  0.16187277  0.55318731     0.62200
F355        F  0.92003691  0.13042803  0.10158510    -0.22900
F356        F  0.94597718  0.08654590  0.10031256    -0.20200
F357        F  0.90818604  0.09178459  0.07534727    -0.19900
F358        F  0.51008092  0.18099901  0.57494080    -0.20000
F359        F  0.54643137  0.17850334  0.53283548    -0.20300
F360        F  0.54191198  0.14102109  0.56687500    -0.23000
C361        C  0.39765498  0.02087234  0.45260099    -0.05800
C362        C  0.40915948  0.99562277  0.46546297     0.00100
C363        C  0.38200834  0.47234897  0.96821893    -0.08500
C364        C  0.35129491  0.47502737  0.96839761    -0.05800
C365        C  0.34763584  0.99971754  0.46554545     0.00100
C366        C  0.36698393  0.02338609  0.45204177    -0.08400
C367        C  0.35576402  0.05217856  0.43888861     0.62000
H368        H  0.41239490  0.03986759  0.44545131     0.12700
H369        H  0.33756538  0.45503275  0.97317852     0.12700
C370        C  0.39534721  0.44194290  0.97561228     0.62200
F371        F  0.34272700  0.07176264  0.46152731    -0.22900
F372        F  0.33493121  0.04523099  0.42200260    -0.20200
F373        F  0.37921965  0.06722021  0.42035859    -0.19900
F374        F  0.40548106  0.44403110  0.00192642    -0.20000
F375        F  0.41920611  0.43373653  0.95276450    -0.20300
F376        F  0.37438765  0.41902323  0.97917034    -0.23000
C377        C  0.15573210  0.04745247  0.50469047    -0.05800
C378        C  0.15874632  0.50976187  0.02486181     0.00100
C379        C  0.14330966  0.48529660  0.04154816    -0.08500
C380        C  0.11197829  0.48454612  0.04524423    -0.05800
C381        C  0.09627939  0.50769282  0.03363424     0.00100
C382        C  0.12446256  0.04763897  0.50754490    -0.08400
C383        C  0.10964395  0.06875135  0.48822816     0.62000
H384        H  0.16948916  0.06205022  0.48823279     0.12700
H385        H  0.09982407  0.46462141  0.05492630     0.12700
C386        C  0.15935466  0.45948507  0.05451363     0.62200
F387        F  0.12939041  0.09053509  0.47400193    -0.22900
F388        F  0.08507099  0.08348675  0.50582492    -0.20200
F389        F  0.09997356  0.05225411  0.46667485    -0.19900
F390        F  0.18167205  0.47089519  0.06739763    -0.20000
F391        F  0.17196306  0.43922082  0.03235772    -0.20300
F392        F  0.13960491  0.44374011  0.07647844    -0.23000
C393        C  0.05446431  0.48449161  0.36180682    -0.05800
C394        C  0.53875877  0.47238230  0.38193045     0.00100
C395        C  0.52235372  0.44803653  0.37397281    -0.08500
C396        C  0.51921047  0.44624852  0.34439113    -0.05800
C397        C  0.53204568  0.46791132  0.32309618     0.00100
C398        C  0.05289635  0.48040162  0.33189366    -0.08400
C399        C  0.06361331  0.01197580  0.30799797     0.62000
H400        H  0.06753768  0.50274022  0.36795916     0.12700
H401        H  0.50519391  0.42895172  0.33800664     0.12700
C402        C  0.50735455  0.42479398  0.39681419     0.62200
F403        F  0.07888540  0.03453342  0.31908593    -0.22900
F404        F  0.04184578  0.02577142  0.29503053    -0.20200
F405        F  0.09015512  0.48413207  0.28704544    -0.19900
F406        F  0.48446282  0.43854340  0.41737523    -0.20000
F407        F  0.52847390  0.41219938  0.41137764    -0.20300
F408        F  0.49496762  0.40147949  0.38368499    -0.23000
C409        C  0.98432079  0.94856040  0.15296925    -0.05800
C410        C  0.96701459  0.96353766  0.17774465     0.00100
C411        C  0.47058289  0.51430677  0.16130661    -0.08500
C412        C  0.46251249  0.01915071  0.14344552    -0.05800
C413        C  0.96248116  0.98106213  0.12009477     0.00100
C414        C  0.98200664  0.95654886  0.12398091    -0.08400
C415        C  0.00061602  0.93906911  0.09776072     0.62000
H416        H  0.00112674  0.93179307  0.15638210     0.12700
H417        H  0.46838958  0.53981046  0.12129805     0.12700
C418        C  0.47912971  0.54150713  0.17748332     0.62200
F419        F  0.01216259  0.91212865  0.10701821    -0.22900
F420        F  0.02461428  0.95625118  0.08323554    -0.20200
F421        F  0.98272064  0.93193230  0.07792048    -0.19900
F422        F  0.50483752  0.04170901  0.19123624    -0.20000
F423        F  0.46024930  0.54375556  0.20538787    -0.20300
F424        F  0.47666057  0.56839373  0.16211748    -0.23000
O425        O  0.06752953  0.47756787  0.00955799    -0.80900
O426        O  0.44838900  0.48324011  0.96610581    -0.65600
O427        O  0.01976063  0.00585067  0.99127961    -1.12200
C428        C  0.97921501  0.00365296  0.57944359     1.06000
O429        O  0.43648687  0.02027898  0.49548821    -0.78800
O430        O  0.45617400  0.05325216  0.53576147    -0.66400
Ni431      Ni  0.05686265  0.48016727  0.97129433     1.34900
C432        C  0.48095195  0.06662311  0.52664900     0.84700
O433        O  0.50178764  0.49614867  0.93325538    -0.79400
O434        O  0.04863356  0.48091114  0.93156251    -0.89600
C435        C  0.42158887  0.99908817  0.98681973     0.84300
O436        O  0.03905916  0.44173678  0.97990988    -0.67800
O437        O  0.45322283  0.00348703  0.57257601    -0.87100
C438        C  0.01309158  0.43230915  0.97936304     0.85100
C439        C  0.52706873  0.48662093  0.91837647     1.06700
H440        H  0.48253698  0.47304733  0.51757812     0.38500
O441        O  0.48329047  0.49365161  0.51003149    -1.09800
O442        O  0.00716728  0.05107052  0.51723319    -0.66400
Ni443      Ni  0.01983115  0.00998740  0.52105363     1.26300
O444        O  0.49333080  0.44938495  0.97290900    -0.66700
O445        O  0.00473873  0.01001097  0.56303402    -0.79000
C446        C  0.08007945  0.51409360  0.51572711     0.84500
O447        O  0.05584031  0.02652289  0.52728824    -0.66100
Ni448      Ni  0.44561815  0.01168286  0.53366731     1.27400
Ni449      Ni  0.48592288  0.49244666  0.97466325     1.26100
H450        H  0.02377993  0.02655954  0.98463707     0.39000
O451        O  0.01617979  0.99953771  0.70330719    -0.74500
O452        O  0.03931775  0.49681717  0.77490894    -0.74500
O453        O  0.02910317  0.45486575  0.73527187    -0.74500
O454        O  0.02513745  0.04219751  0.74240518    -0.74600
O455        O  0.47592326  0.03951635  0.76729519    -0.74500
O456        O  0.47965951  0.45201934  0.75593334    -0.74500
O457        O  0.49068376  0.49287241  0.79551197    -0.74500
O458        O  0.46604720  0.99815144  0.72724641    -0.74500
Ni459      Ni  0.02787811  0.99826958  0.74066421     1.25400
Ni460      Ni  0.47735487  0.49575392  0.75883794     1.25400
C461        C  0.48724780  0.99891370  0.70389792     0.87700
C462        C  0.51871040  0.49222206  0.79656559     0.87700
C463        C  0.50415326  0.43774581  0.74402527     0.87700
C464        C  0.50002046  0.05434692  0.75684710     0.87900
O465        O  0.20506762  0.03380817  0.00611877    -0.74500
O466        O  0.29030493  0.02896256  0.97938045    -0.74500
O467        O  0.24393412  0.03114181  0.95001687    -0.74500
O468        O  0.26437865  0.03650501  0.53270689    -0.74600
O469        O  0.25670979  0.48537259  0.53668102    -0.74500
O470        O  0.24480558  0.48194970  0.95214739    -0.74500
O471        O  0.29609510  0.47901324  0.48134249    -0.74500
O472        O  0.21114848  0.49197435  0.50688154    -0.74500
Ni473      Ni  0.24783672  0.03313733  0.99252180     1.25400
Ni474      Ni  0.25335119  0.48367219  0.49414026     1.25400
C475        C  0.20212704  0.02048970  0.50908998     0.87700
C476        C  0.30339517  0.00296805  0.97571679     0.87700
C477        C  0.24368946  0.00587659  0.93590478     0.87700
C478        C  0.26126434  0.01179047  0.54868985     0.87900
O479        O  0.98648198  0.20206650  0.99189269    -0.74500
O480        O  0.99212330  0.28735034  0.97682579    -0.74500
O481        O  0.03240788  0.24332176  0.98596487    -0.74500
O482        O  0.44651916  0.24769875  0.97996758    -0.74600
O483        O  0.44536360  0.25880358  0.52896698    -0.74500
O484        O  0.03159593  0.25321331  0.53218471    -0.74500
O485        O  0.49154811  0.29920102  0.52477887    -0.74500
O486        O  0.48579868  0.21362973  0.53697991    -0.74500
Ni487      Ni  0.98962163  0.24446842  0.98264893     1.25400
Ni488      Ni  0.48817349  0.25672342  0.53241426     1.25400
C489        C  0.97992795  0.19200538  0.01875661     0.87700
C490        C  0.98694817  0.30550855  0.99891637     0.87700
C491        C  0.04084138  0.24814500  0.01069180     0.87700
C492        C  0.42585263  0.25212166  0.00376642     0.87900
O493        O  0.46357662  0.24831874  0.79210993    -0.74500
O494        O  0.04697300  0.24419761  0.75764763    -0.74500
O495        O  0.50742252  0.28932095  0.77305582    -0.74500
O496        O  0.50367911  0.20175623  0.77595705    -0.74600
O497        O  0.99480607  0.20489011  0.72908456    -0.74500
O498        O  0.99780556  0.29259146  0.72877589    -0.74500
O499        O  0.03821070  0.24633190  0.71151122    -0.74500
O500        O  0.45420838  0.24811506  0.74616344    -0.74500
Ni501      Ni  0.50582638  0.24552179  0.77621202     1.25400
Ni502      Ni  0.99578276  0.24876430  0.72730129     1.25400
C503        C  0.44522933  0.24920614  0.77454901     0.87700
C504        C  0.05631548  0.24388407  0.72928989     0.87700
C505        C  0.50278614  0.30432529  0.75019222     0.87700
C506        C  0.49956486  0.18736733  0.75302378     0.87900
O507        O  0.32873828  0.24152444  0.74715717    -0.80900
O508        O  0.19885789  0.25097355  0.72071243    -0.65600
O509        O  0.27609635  0.26566216  0.73440178    -1.12200
C510        C  0.23186949  0.27850773  0.83304253     1.06000
O511        O  0.16869093  0.26871317  0.76220450    -0.78800
O512        O  0.21060442  0.31222204  0.76544583    -0.66400
Ni513      Ni  0.30739430  0.23840228  0.71539601     1.34900
C514        C  0.23638808  0.32261219  0.76625227     0.84700
O515        O  0.25043037  0.26387169  0.68661616    -0.79400
O516        O  0.29008210  0.23251368  0.68062325    -0.89600
C517        C  0.17320734  0.25658286  0.73664246     0.84300
O518        O  0.28741955  0.20379121  0.73451943    -0.67800
O519        O  0.21208170  0.29186461  0.82145920    -0.87100
C520        C  0.26167699  0.19556023  0.73134560     0.85100
C521        C  0.26881020  0.24572487  0.67085415     1.06700
H522        H  0.22074675  0.23233132  0.77601836     0.38500
O523        O  0.22529006  0.25321459  0.77021856    -1.09800
O524        O  0.25634986  0.30678183  0.77599387    -0.66400
Ni525      Ni  0.26381774  0.26308948  0.77653960     1.26300
O526        O  0.24234502  0.21426001  0.72458532    -0.66700
O527        O  0.25081084  0.26010719  0.81825831    -0.79000
C528        C  0.32625651  0.25734456  0.77060808     0.84500
O529        O  0.30259604  0.27197089  0.78243285    -0.66100
Ni530      Ni  0.19302637  0.27935215  0.78977754     1.27400
Ni531      Ni  0.23731942  0.25814412  0.72782355     1.26100
H532        H  0.28185933  0.28603840  0.72787945     0.39000
O533        O  0.24157066  0.24588416  0.95905056    -0.74500
O534        O  0.24421507  0.21743503  0.53750055    -0.74500
O535        O  0.20461681  0.22882235  0.49962872    -0.74500
O536        O  0.29216597  0.23491020  0.49529828    -0.74600
O537        O  0.27457796  0.28251073  0.01186077    -0.74500
O538        O  0.18647209  0.27692661  0.01685046    -0.74500
O539        O  0.23657394  0.26528827  0.55324412    -0.74500
O540        O  0.23524461  0.29396458  0.97426955    -0.74500
Ni541      Ni  0.24874359  0.23009873  0.49694231     1.25400
Ni542      Ni  0.23026962  0.28164153  0.01487366     1.25400
C543        C  0.23969826  0.27427841  0.95359743     0.87700
C544        C  0.24070908  0.23709833  0.55818707     0.87700
C545        C  0.18646175  0.25170244  0.50752312     0.87700
C546        C  0.29234646  0.25933648  0.00382364     0.87900
O547        O  0.22409410  0.05242761  0.74568815    -0.74500
O548        O  0.22642927  0.46534399  0.74881829    -0.74500
O549        O  0.22311542  0.50944524  0.79133852    -0.74500
O550        O  0.22798208  0.00870076  0.70235115    -0.74600
O551        O  0.27791602  0.00923079  0.69503037    -0.74500
O552        O  0.27294644  0.50839273  0.78416453    -0.74500
O553        O  0.27669480  0.46499362  0.74097032    -0.74500
O554        O  0.27429892  0.05198026  0.73920654    -0.74500
Ni555      Ni  0.22419175  0.50867351  0.74769993     1.25400
Ni556      Ni  0.27658980  0.00857725  0.73888792     1.25400
C557        C  0.24902298  0.06642393  0.74260018     0.87700
C558        C  0.25167273  0.45094339  0.74596733     0.87700
C559        C  0.24696004  0.50887812  0.80273135     0.87700
C560        C  0.25393812  0.00893094  0.68382704     0.87900
C561        C  0.24209911  0.11445299  0.71682022    -0.05800
C562        C  0.24887487  0.09975948  0.74192604     0.00100
C563        C  0.25709871  0.11682688  0.76473465    -0.08500
C564        C  0.26014321  0.14832800  0.76070455    -0.05800
C565        C  0.25459267  0.16303961  0.73502544     0.00100
C566        C  0.24498777  0.14602949  0.71274615    -0.08400
C567        C  0.24003600  0.16051680  0.68384170     0.62000
H568        H  0.23576424  0.10070424  0.69979791     0.12700
H569        H  0.26708165  0.16181516  0.77757402     0.12700
C570        C  0.26141521  0.10195752  0.79362757     0.62200
F571        F  0.23218038  0.13939893  0.66486839    -0.22900
F572        F  0.26636017  0.17402851  0.66911898    -0.20200
F573        F  0.21703962  0.18207129  0.68970502    -0.19900
F574        F  0.28427338  0.08021382  0.78795069    -0.20000
F575        F  0.23482996  0.08838487  0.80752726    -0.20300
F576        F  0.26879110  0.12281171  0.81311707    -0.23000
C577        C  0.25969418  0.37085934  0.77481958    -0.05800
C578        C  0.24263479  0.35479800  0.75811125     0.00100
C579        C  0.23110596  0.37008826  0.73533512    -0.08500
C580        C  0.23544451  0.40146894  0.73153040    -0.05800
C581        C  0.25143785  0.41764751  0.74903276     0.00100
C582        C  0.26410037  0.40222598  0.77090179    -0.08400
C583        C  0.28031586  0.41904532  0.79142170     0.62000
H584        H  0.26844835  0.35884427  0.79203072     0.12700
H585        H  0.22553827  0.41384676  0.71532792     0.12700
C586        C  0.21429389  0.35370596  0.71504067     0.62200
F587        F  0.28888297  0.39993346  0.81250514    -0.22900
F588        F  0.26135133  0.44132852  0.80647629    -0.20200
F589        F  0.30609086  0.43220087  0.77494175    -0.19900
F590        F  0.18558586  0.34666681  0.73060351    -0.20000
F591        F  0.22980255  0.32735508  0.70445713    -0.20300
F592        F  0.21143913  0.37142078  0.69057001    -0.23000
C593        C  0.23180848  0.23693070  0.64017751    -0.05800
C594        C  0.26247890  0.23758189  0.64186504     0.00100
C595        C  0.28522038  0.23104524  0.61630280    -0.08500
C596        C  0.27621905  0.22600077  0.58934857    -0.05800
C597        C  0.24576247  0.22853974  0.58739505     0.00100
C598        C  0.22303240  0.23256095  0.61322626    -0.08400
C599        C  0.18952255  0.23333603  0.61328797     0.62000
H600        H  0.21433072  0.24069346  0.66005000     0.12700
H601        H  0.29315012  0.22298667  0.56893358     0.12700
C602        C  0.31864039  0.23162565  0.61681905     0.62200
F603        F  0.17498578  0.21254242  0.63407562    -0.22900
F604        F  0.18356501  0.22612261  0.58586184    -0.20200
F605        F  0.17775312  0.26200837  0.62112795    -0.19900
F606        F  0.32582309  0.20785921  0.63421058    -0.20000
F607        F  0.32537671  0.25885661  0.62838564    -0.20300
F608        F  0.33671500  0.22874331  0.58852401    -0.23000
C609        C  0.26279545  0.27987363  0.87083668    -0.05800
C610        C  0.23430368  0.28509843  0.86384542     0.00100
C611        C  0.20921092  0.29373007  0.88672192    -0.08500
C612        C  0.21304015  0.29319753  0.91625949    -0.05800
C613        C  0.24045030  0.28378964  0.92307950     0.00100
C614        C  0.26620423  0.27865096  0.90037261    -0.08400
C615        C  0.29677488  0.27104972  0.90749599     0.62000
H616        H  0.28215582  0.27488668  0.85306914     0.12700
H617        H  0.19398649  0.29766724  0.93452157     0.12700
C618        C  0.17822587  0.30170135  0.88067719     0.62200
F619        F  0.31963460  0.27101552  0.88206320    -0.22900
F620        F  0.29625639  0.24262909  0.92072877    -0.20200
F621        F  0.30352250  0.29237822  0.92684670    -0.19900
F622        F  0.16744976  0.27747814  0.86740652    -0.20000
F623        F  0.18018221  0.32695730  0.86215272    -0.20300
F624        F  0.15734613  0.30842973  0.90664757    -0.23000
C625        C  0.13542482  0.26760336  0.70682366    -0.05800
C626        C  0.14711422  0.24755169  0.72562127     0.00100
C627        C  0.13180733  0.22086345  0.73660657    -0.08500
C628        C  0.10262253  0.21740394  0.73209654    -0.05800
C629        C  0.08870834  0.24043213  0.71819711     0.00100
C630        C  0.10586470  0.26432880  0.70276171    -0.08400
C631        C  0.09230219  0.28726342  0.68419701     0.62000
H632        H  0.14847928  0.28716873  0.69767232     0.12700
H633        H  0.08906260  0.19878175  0.74288767     0.12700
C634        C  0.14529857  0.19751941  0.75496241     0.62200
F635        F  0.11365958  0.30742772  0.66957893    -0.22900
F636        F  0.06931363  0.30368808  0.70224963    -0.20200
F637        F  0.08081859  0.27222075  0.66288254    -0.19900
F638        F  0.14855119  0.21018044  0.78150050    -0.20000
F639        F  0.17329672  0.18791500  0.73917721    -0.20300
F640        F  0.12728712  0.17228465  0.76165334    -0.23000
C641        C  0.40017699  0.28116114  0.78438349    -0.05800
C642        C  0.41304210  0.25227457  0.78642432     0.00100
C643        C  0.39486965  0.22638249  0.79177533    -0.08500
C644        C  0.36434030  0.22981557  0.79093181    -0.05800
C645        C  0.35256975  0.25802137  0.78400590     0.00100
C646        C  0.36978315  0.28452249  0.78275933    -0.08400
C647        C  0.35699561  0.31553175  0.77674934     0.62000
H648        H  0.41487033  0.30057514  0.78065244     0.12700
H649        H  0.35031792  0.20999368  0.79226364     0.12700
C650        C  0.40831468  0.19509739  0.79547650     0.62200
F651        F  0.37774011  0.33822206  0.77653464    -0.22900
F652        F  0.33177637  0.32208909  0.79878783    -0.20200
F653        F  0.34893506  0.31577164  0.74928255    -0.19900
F654        F  0.42399315  0.19554884  0.81825706    -0.20000
F655        F  0.42786803  0.18673716  0.76924608    -0.20300
F656        F  0.38623406  0.17332993  0.80248183    -0.23000
C657        C  0.38245884  0.27563714  0.52297095    -0.05800
C658        C  0.39189275  0.25444118  0.00248511     0.00100
C659        C  0.37830609  0.23740776  0.98261203    -0.08500
C660        C  0.34646715  0.24010376  0.98379245    -0.05800
C661        C  0.32676115  0.25978708  0.00338450     0.00100
C662        C  0.35064142  0.27806032  0.52341619    -0.08400
C663        C  0.33113708  0.29948895  0.54544239     0.62000
H664        H  0.39182346  0.28879943  0.53846918     0.12700
H665        H  0.33659109  0.22667332  0.96887236     0.12700
C666        C  0.39710725  0.21560145  0.96046988     0.62200
F667        F  0.34733048  0.31271181  0.56419711    -0.22900
F668        F  0.30757358  0.28391345  0.56302818    -0.20200
F669        F  0.31965633  0.32252016  0.53006252    -0.19900
F670        F  0.37947375  0.19912449  0.94537760    -0.20000
F671        F  0.41248232  0.19522314  0.97532174    -0.20300
F672        F  0.41753709  0.23163305  0.93946179    -0.23000
C673        C  0.10782900  0.23359854  0.48782825    -0.05800
C674        C  0.08663067  0.25023313  0.50915096     0.00100
C675        C  0.08731644  0.26591405  0.03262419    -0.08500
C676        C  0.11935185  0.26607044  0.03120326    -0.05800
C677        C  0.15214515  0.25012570  0.50749407     0.00100
C678        C  0.13982943  0.23320672  0.48652639    -0.08400
C679        C  0.16042310  0.21546390  0.46186617     0.62000
H680        H  0.09899560  0.22050635  0.47191153     0.12700
H681        H  0.12800490  0.27851009  0.04767954     0.12700
C682        C  0.06672946  0.28460650  0.05646252     0.62200
F683        F  0.14477938  0.20369960  0.44185980    -0.22900
F684        F  0.17399748  0.19147411  0.47404750    -0.20200
F685        F  0.18239171  0.23426509  0.44604875    -0.19900
F686        F  0.04823267  0.26562358  0.07628659    -0.20000
F687        F  0.04926269  0.30443654  0.04327251    -0.20300
F688        F  0.08285637  0.30168699  0.07260773    -0.23000
C689        C  0.26906931  0.99728626  0.84788992    -0.05800
C690        C  0.24491995  0.50832732  0.83765173     0.00100
C691        C  0.21810008  0.51462515  0.86021867    -0.08500
C692        C  0.21906510  0.51490707  0.89161326    -0.05800
C693        C  0.24508468  0.50698052  0.90278512     0.00100
C694        C  0.26935408  0.99518579  0.87930216    -0.08400
C695        C  0.29683390  0.98147574  0.88879824     0.62000
H696        H  0.28887631  0.98992481  0.83173661     0.12700
H697        H  0.19884416  0.52059440  0.90803534     0.12700
C698        C  0.18792368  0.52036458  0.85159317     0.62200
F699        F  0.31931478  0.97319152  0.86458110    -0.22900
F700        F  0.28863583  0.95580773  0.90606946    -0.20200
F701        F  0.30863213  0.00222914  0.90525605    -0.19900
F702        F  0.18026273  0.49509533  0.83742392    -0.20000
F703        F  0.18964189  0.54533146  0.83276472    -0.20300
F704        F  0.16489248  0.52587836  0.87620815    -0.23000
C705        C  0.24623460  0.48646714  0.60323497    -0.05800
C706        C  0.26067432  0.01167866  0.58321856     0.00100
C707        C  0.27557254  0.03309219  0.59830431    -0.08500
C708        C  0.27332361  0.03116944  0.63027566    -0.05800
C709        C  0.25619089  0.00905495  0.64907108     0.00100
C710        C  0.24386302  0.48512855  0.63514802    -0.08400
C711        C  0.22810219  0.45859273  0.65279822     0.62000
H712        H  0.23627351  0.46870724  0.59264851     0.12700
H713        H  0.28467299  0.04767027  0.64105918     0.12700
C714        C  0.29446838  0.05787996  0.58065658     0.62200
F715        F  0.21924117  0.43735066  0.63456060    -0.22900
F716        F  0.20259867  0.46884340  0.67267399    -0.20200
F717        F  0.24754372  0.44433974  0.66835861    -0.19900
F718        F  0.27597499  0.07803758  0.56917819    -0.20000
F719        F  0.31560654  0.04521357  0.55751867    -0.20300
F720        F  0.30985042  0.07409344  0.59818049    -0.23000
C721        C  0.00859060  0.35604803  0.72306993    -0.05800
C722        C  0.50368894  0.33874744  0.74938179     0.00100
C723        C  0.50044149  0.35708532  0.77542378    -0.08500
C724        C  0.50095081  0.38909085  0.77232064    -0.05800
C725        C  0.50463941  0.40374480  0.74451180     0.00100
C726        C  0.00931894  0.38811261  0.72028288    -0.08400
C727        C  0.01269719  0.40302425  0.68977825     0.62000
H728        H  0.01109072  0.34250190  0.70315178     0.12700
H729        H  0.49857577  0.40323318  0.79185252     0.12700
C730        C  0.49588794  0.34349783  0.80667432     0.62200
F731        F  0.01516801  0.38189610  0.66726290    -0.22900
F732        F  0.03836580  0.42043967  0.68380868    -0.20200
F733        F  0.48456678  0.41905722  0.68863956    -0.19900
F734        F  0.02334329  0.32875546  0.81047656    -0.20000
F735        F  0.47119182  0.32469577  0.81185384    -0.20300
F736        F  0.49059668  0.36556442  0.82848123    -0.23000
C737        C  0.98460489  0.13982617  0.77718425    -0.05800
C738        C  0.49995676  0.15327875  0.75345627     0.00100
C739        C  0.51626644  0.13566043  0.72935261    -0.08500
C740        C  0.51545685  0.10364422  0.73152889    -0.05400
C741        C  0.49939331  0.08842640  0.75696441     0.00100
C742        C  0.98374769  0.10772768  0.77875742    -0.08400
C743        C  0.96607686  0.09248992  0.80684935     0.62000
H744        H  0.97279689  0.15310918  0.79592377     0.12700
H745        H  0.52736519  0.09007635  0.71304247     0.12700
C746        C  0.53577131  0.15040383  0.70196393     0.62200
F747        F  0.95653358  0.11303980  0.82964972    -0.22900
F748        F  0.98384621  0.07060636  0.81702422    -0.20200
F749        F  0.44238449  0.07686299  0.80614979    -0.19900
F750        F  0.05269992  0.17394737  0.70565631    -0.20000
F751        F  0.51781825  0.16623866  0.68588213    -0.20300
F752        F  0.55271372  0.12917189  0.68317500    -0.23000
C753        C  0.02210077  0.34605598  0.98094228    -0.05800
C754        C  0.99241964  0.33784663  0.99333799     0.00100
C755        C  0.48358047  0.36456405  0.50240865    -0.08500
C756        C  0.49175257  0.39502470  0.49776846    -0.05800
C757        C  0.00715412  0.39936842  0.98329709     0.00100
C758        C  0.03022955  0.37652722  0.97611654    -0.08400
C759        C  0.06329048  0.38363490  0.96355884     0.62000
H760        H  0.03914328  0.32816280  0.97593102     0.12700
H761        H  0.47472091  0.41274488  0.50398303     0.12700
C762        C  0.45104341  0.35646892  0.51577483     0.62200
F763        F  0.08058545  0.35764111  0.95527650    -0.22900
F764        F  0.07528727  0.39796398  0.98495398    -0.20200
F765        F  0.06584399  0.40202089  0.93847546    -0.19900
F766        F  0.44921039  0.34335144  0.54365502    -0.20000
F767        F  0.44083374  0.33623779  0.49748626    -0.20300
F768        F  0.43205531  0.38177179  0.51899819    -0.23000
C769        C  0.96747440  0.14684885  0.50503339    -0.05800
C770        C  0.48773605  0.16307866  0.51911404     0.00100
C771        C  0.49268185  0.13670188  0.99859692    -0.08500
C772        C  0.48943277  0.10573682  0.00594942    -0.05800
C773        C  0.48121575  0.09988580  0.52482581     0.00100
C774        C  0.96377096  0.11534201  0.50754365    -0.08400
C775        C  0.94118849  0.10035904  0.49235851     0.62000
H776        H  0.95395582  0.16036203  0.49282089     0.12700
H777        H  0.50027917  0.08879859  0.99010606     0.12700
C778        C  0.51217367  0.14554047  0.96848464     0.62200
F779        F  0.92727996  0.12109412  0.47644126    -0.22900
F780        F  0.91884934  0.08679864  0.51349558    -0.20200
F781        F  0.95584641  0.07870599  0.47261389    -0.19900
F782        F  0.53414261  0.16549739  0.97244843    -0.20000
F783        F  0.49429985  0.15887137  0.95069506    -0.20300
F784        F  0.52677920  0.12065845  0.95332445    -0.23000
C785        C  0.38450724  0.02404453  0.96329971    -0.05800
C786        C  0.39565713  0.99702151  0.97341854     0.00100
C787        C  0.38998722  0.46756224  0.47103141    -0.08500
C788        C  0.35886883  0.47038909  0.47244609    -0.05800
C789        C  0.33641443  0.00055288  0.96683818     0.00100
C790        C  0.35500916  0.02617321  0.95898145    -0.08400
C791        C  0.34394887  0.05638791  0.94861142     0.62000
H792        H  0.39830283  0.04412352  0.96096398     0.12700
H793        H  0.34424630  0.45215272  0.48225596     0.12700
C794        C  0.40301123  0.43920103  0.48315912     0.62200
F795        F  0.32969350  0.07319245  0.97300814    -0.22900
F796        F  0.32422364  0.05199098  0.92989909    -0.20200
F797        F  0.36783398  0.07300095  0.93274036    -0.19900
F798        F  0.41490316  0.44644823  0.50753542    -0.20000
F799        F  0.42562091  0.42678460  0.46124041    -0.20300
F800        F  0.38131059  0.41736120  0.49214342    -0.23000
C801        C  0.14139527  0.03623660  0.01792066    -0.05800
C802        C  0.16824759  0.52417176  0.52259920     0.00100
C803        C  0.15046968  0.50328424  0.54218202    -0.08500
C804        C  0.11953418  0.50290673  0.54284103    -0.05800
C805        C  0.10644703  0.52390154  0.52601202     0.00100
C806        C  0.10978573  0.03648400  0.02394245    -0.08400
C807        C  0.09241794  0.06362103  0.01489233     0.62000
H808        H  0.15345055  0.05528303  0.00620619     0.12700
H809        H  0.10603146  0.48453203  0.55427958     0.12700
C810        C  0.16380583  0.47993128  0.56051557     0.62200
F811        F  0.11134810  0.08721072  0.00359262    -0.22900
F812        F  0.07183034  0.07413700  0.03958408    -0.20200
F813        F  0.07714215  0.05537506  0.99319694    -0.19900
F814        F  0.18911527  0.49106257  0.56879678    -0.20000
F815        F  0.17152019  0.45375771  0.54414428    -0.20300
F816        F  0.14307390  0.47279661  0.58641943    -0.23000
C817        C  0.04558022  0.50830596  0.86980140    -0.05800
C818        C  0.52995178  0.48425453  0.88608517     0.00100
C819        C  0.51334169  0.46254351  0.87417732    -0.08500
C820        C  0.51190235  0.46501257  0.84408777    -0.05800
C821        C  0.52654928  0.48829410  0.82585754     0.00100
C822        C  0.04494952  0.51063726  0.83928034    -0.08400
C823        C  0.06109077  0.03450079  0.82368938     0.62000
H824        H  0.05852325  0.52406981  0.87974320     0.12700
H825        H  0.49816707  0.44948091  0.83480241     0.12700
C826        C  0.49635381  0.43751333  0.89339912     0.62200
F827        F  0.07695816  0.05213160  0.83963914    -0.22900
F828        F  0.04299845  0.05364981  0.81061158    -0.20200
F829        F  0.08503697  0.51987856  0.79782097    -0.19900
F830        F  0.47226189  0.44992001  0.91355869    -0.20000
F831        F  0.51543434  0.42227196  0.90870018    -0.20300
F832        F  0.48518424  0.41652970  0.87649768    -0.23000
C833        C  0.00070743  0.97926677  0.65083497    -0.05800
C834        C  0.98200079  0.99846365  0.67124225     0.00100
C835        C  0.46064503  0.52142664  0.65829925    -0.08500
C836        C  0.45679695  0.01879082  0.63496083    -0.05800
C837        C  0.97830797  0.99891939  0.61114476     0.00100
C838        C  0.99888177  0.97865801  0.62088527    -0.08400
C839        C  0.01882277  0.95643772  0.59993025     0.62000
H840        H  0.01751456  0.96519793  0.65839290     0.12700
H841        H  0.44440403  0.53917256  0.62017171     0.12700
C842        C  0.44360051  0.54488883  0.67975313     0.62200
F843        F  0.03190211  0.93466606  0.61550467    -0.22900
F844        F  0.04180391  0.97169760  0.58111225    -0.20200
F845        F  0.00173964  0.94152936  0.58310043    -0.19900
F846        F  0.45573894  0.05762653  0.70054616    -0.20000
F847        F  0.42371536  0.53059345  0.70262656    -0.20300
F848        F  0.42705689  0.56495920  0.66574267    -0.23000
O849        O  0.08523111  0.99185675  0.49976884    -0.80900
O850        O  0.45993657  0.98365322  0.46676734    -0.65600
O851        O  0.03303805  0.50675165  0.47631819    -1.12200
C852        C  0.96477914  0.49696538  0.08688744     1.06000
O853        O  0.42704340  0.52004128  0.99557045    -0.78800
O854        O  0.44715539  0.54863922  0.03753841    -0.66400
Ni855      Ni  0.06939055  0.98485987  0.46482127     1.34900
C856        C  0.47299044  0.56030338  0.03055591     0.84700
O857        O  0.51356179  0.99647532  0.43231187    -0.79400
O858        O  0.05777017  0.97576704  0.42765537    -0.89600
C859        C  0.43612922  0.49744056  0.47028678     0.84300
O860        O  0.05217144  0.94863395  0.48307503    -0.67800
O861        O  0.43938416  0.49768327  0.07315112    -0.87100
C862        C  0.02803813  0.93708234  0.47919897     0.85100
C863        C  0.53859501  0.98458008  0.41911006     1.06700
H864        H  0.46608563  0.96953565  0.03412730     0.38500
O865        O  0.46789204  0.99044480  0.02748246    -1.09800
O866        O  0.99790130  0.54541202  0.02709453    -0.66400
Ni867      Ni  0.00705653  0.50303076  0.02926098     1.26300
O868        O  0.50697457  0.95318649  0.47459036    -0.66700
O869        O  0.99127059  0.50128617  0.07133580    -0.79000
C870        C  0.06606130  0.00238290  0.03026639     0.84500
O871        O  0.04424479  0.51541538  0.03662554    -0.66100
Ni872      Ni  0.43395287  0.50833554  0.03392920     1.27400
Ni873      Ni  0.49765185  0.99573543  0.47391544     1.26100
H874        H  0.03694718  0.52626331  0.46640365     0.39000
O875        O  0.01129561  0.46787188  0.20133527    -0.74500
O876        O  0.03870302  0.96377281  0.27359004    -0.74500
O877        O  0.02491796  0.91819177  0.23973446    -0.74500
O878        O  0.02485068  0.50692726  0.24155062    -0.74600
O879        O  0.47584627  0.51641663  0.26513084    -0.74500
O880        O  0.48506921  0.92824517  0.26500425    -0.74500
O881        O  0.49907231  0.96920500  0.30281342    -0.74500
O882        O  0.46101056  0.47627949  0.22652065    -0.74500
Ni883      Ni  0.02798693  0.46337464  0.23598472     1.25400
Ni884      Ni  0.48127274  0.97187923  0.26904094     1.25400
C885        C  0.47977798  0.47897335  0.20153229     0.87700
C886        C  0.52764345  0.97019799  0.30068726     0.87700
C887        C  0.50924293  0.91499401  0.25060327     0.87700
C888        C  0.49912810  0.53166189  0.25291315     0.87900
O889        O  0.21763406  0.54199869  0.50455629    -0.74500
O890        O  0.30189446  0.52895052  0.47875059    -0.74500
O891        O  0.25593177  0.53519937  0.44892717    -0.74500
O892        O  0.25246857  0.53187812  0.03669079    -0.74600
O893        O  0.24882184  0.98149639  0.03691336    -0.74500
O894        O  0.25236064  0.98640656  0.44995525    -0.74500
O895        O  0.28838343  0.97864313  0.98167664    -0.74500
O896        O  0.20352770  0.98342370  0.00607956    -0.74500
Ni897      Ni  0.25995713  0.53696714  0.49142587     1.25400
Ni898      Ni  0.24594986  0.97938677  0.99399711     1.25400
C899        C  0.19142237  0.50890875  0.01302429     0.87700
C900        C  0.31300494  0.50213375  0.47506365     0.87700
C901        C  0.25288664  0.51006305  0.43556438     0.87700
C902        C  0.25224138  0.50673743  0.05178776     0.87900
O903        O  0.00248040  0.70700842  0.47791880    -0.74500
O904        O  0.00973463  0.79298230  0.46705404    -0.74500
O905        O  0.04938759  0.74718762  0.47379204    -0.74500
O906        O  0.46327903  0.75205279  0.47229662    -0.74600
O907        O  0.43872422  0.75147149  0.02549368    -0.74500
O908        O  0.02571589  0.75130155  0.02730904    -0.74500
O909        O  0.48371780  0.79261400  0.02157783    -0.74500
O910        O  0.47979943  0.70708781  0.03348304    -0.74500
Ni911      Ni  0.00658000  0.74980202  0.47066681     1.25400
Ni912      Ni  0.48139235  0.75016903  0.02905538     1.25400
C913        C  0.99524450  0.69617325  0.50450608     0.87700
C914        C  0.00456913  0.80987919  0.49013943     0.87700
C915        C  0.05796577  0.75065468  0.49865974     0.87700
C916        C  0.44226033  0.75593472  0.49588273     0.87900
O917        O  0.46653243  0.72692353  0.29082586    -0.74500
O918        O  0.04778930  0.70947058  0.27398242    -0.74500
O919        O  0.51257267  0.76590509  0.27834537    -0.74500
O920        O  0.50549900  0.67842850  0.27909445    -0.74600
O921        O  0.00100668  0.66828788  0.23913281    -0.74500
O922        O  0.00217633  0.75565028  0.23799419    -0.74500
O923        O  0.04441052  0.71066334  0.22616960    -0.74500
O924        O  0.46405062  0.72826537  0.24262534    -0.74500
Ni925      Ni  0.50920209  0.72211772  0.28054002     1.25400
Ni926      Ni  0.00142680  0.71194406  0.23703231     1.25400
C927        C  0.45161549  0.73026767  0.27033393     0.87700
C928        C  0.06017103  0.71052996  0.24617715     0.87700
C929        C  0.51157339  0.78138308  0.25459541     0.87700
C930        C  0.50394975  0.66484440  0.25485304     0.87900
O931        O  0.33736798  0.74238125  0.23222837    -0.80900
O932        O  0.20171323  0.74396681  0.22432797    -0.65600
O933        O  0.28183812  0.76491520  0.22468397    -1.12200
C934        C  0.24945618  0.78040497  0.32529763     1.06000
O935        O  0.17666692  0.75987121  0.26892037    -0.78800
O936        O  0.21639813  0.80786708  0.26152394    -0.66400
Ni937      Ni  0.31283151  0.73890578  0.20299785     1.34900
C938        C  0.24145505  0.82110669  0.25953046     0.84700
O939        O  0.24826098  0.75838152  0.18297555    -0.79400
O940        O  0.29144784  0.73218211  0.17112613    -0.89600
C941        C  0.17808988  0.74642238  0.24444014     0.84300
O942        O  0.29702612  0.70285903  0.22284620    -0.67800
O943        O  0.22855015  0.79306996  0.31505163    -0.87100
C944        C  0.27054800  0.69335041  0.22456065     0.85100
C945        C  0.26698100  0.74241171  0.16482757     1.06700
H946        H  0.23441712  0.73025631  0.27405876     0.38500
O947        O  0.23659541  0.75110355  0.26708931    -1.09800
O948        O  0.26478867  0.80742902  0.26551245    -0.66400
Ni949      Ni  0.27596689  0.76457459  0.26686809     1.26300
O950        O  0.24876239  0.71101168  0.22192837    -0.66700
O951        O  0.26919901  0.76370631  0.30911597    -0.79000
C952        C  0.33751641  0.75899760  0.25470817     0.84500
O953        O  0.31582312  0.77649718  0.26598166    -0.66100
Ni954      Ni  0.20497372  0.77586910  0.28958429     1.27400
Ni955      Ni  0.24173155  0.75441568  0.22460137     1.26100
H956        H  0.28542651  0.78523132  0.21671527     0.39000
O957        O  0.25967768  0.74813476  0.44871365    -0.74500
O958        O  0.23653651  0.71549934  0.03343700    -0.74500
O959        O  0.19790767  0.72699659  0.99480068    -0.74500
O960        O  0.28540157  0.73082626  0.99098980    -0.74600
O961        O  0.29061219  0.78122801  0.50458892    -0.74500
O962        O  0.20317451  0.77547294  0.50750851    -0.74500
O963        O  0.23025324  0.76377217  0.04798596    -0.74500
O964        O  0.25222771  0.79510339  0.46695664    -0.74500
Ni965      Ni  0.24188461  0.72725047  0.99243740     1.25400
Ni966      Ni  0.24663848  0.78009428  0.50671347     1.25400
C967        C  0.25730890  0.77679866  0.44510058     0.87700
C968        C  0.23320274  0.73558570  0.05377071     0.87700
C969        C  0.18038003  0.75040069  0.00209798     0.87700
C970        C  0.30892434  0.75884459  0.49522371     0.87900
O971        O  0.23010381  0.55272010  0.24559827    -0.74500
O972        O  0.22311557  0.96748951  0.25107713    -0.74500
O973        O  0.22695987  0.01252335  0.29131790    -0.74500
O974        O  0.22620986  0.50724831  0.20569228    -0.74600
O975        O  0.27618923  0.50351030  0.19554759    -0.74500
O976        O  0.27666974  0.00603699  0.28113956    -0.74500
O977        O  0.27330922  0.96273055  0.23939655    -0.74500
O978        O  0.28015868  0.54706406  0.23697178    -0.74500
Ni979      Ni  0.22509752  0.01089775  0.24840165     1.25400
Ni980      Ni  0.27766359  0.50399374  0.23877995     1.25400
C981        C  0.25654304  0.56406770  0.24063720     0.87700
C982        C  0.24721358  0.95099769  0.24676124     0.87700
C983        C  0.25177655  0.00986867  0.30094554     0.87700
C984        C  0.25125658  0.50494518  0.18592607     0.87900
C985        C  0.24351231  0.61273869  0.21952215    -0.05800
C986        C  0.25983106  0.59722664  0.23799700     0.00100
C987        C  0.27910314  0.61340323  0.25264763    -0.08500
C988        C  0.28113853  0.64494978  0.24823504    -0.05800
C989        C  0.26519780  0.66049918  0.22932942     0.00100
C990        C  0.24633183  0.64411107  0.21425831    -0.08400
C991        C  0.23077593  0.65893226  0.19125448     0.62000
H992        H  0.22921533  0.59973793  0.20836512     0.12700
H993        H  0.29562421  0.65778895  0.25930834     0.12700
C994        C  0.29713753  0.59773584  0.27315314     0.62200
F995        F  0.21715260  0.63783448  0.17656286    -0.22900
F996        F  0.25183293  0.67395226  0.17001587    -0.20200
F997        F  0.20860709  0.67919612  0.20489065    -0.19900
F998        F  0.31927227  0.57905640  0.25674930    -0.20000
F999        F  0.27819780  0.58062424  0.29446922    -0.20300
F1000       F  0.31125678  0.61837536  0.28789261    -0.23000
C1001       C  0.25822282  0.87060421  0.27247829    -0.05800
C1002       C  0.24266993  0.85424513  0.25460680     0.00100
C1003       C  0.22770022  0.86996249  0.23455367    -0.08500
C1004       C  0.22931317  0.90181679  0.23293388    -0.05800
C1005       C  0.24520791  0.91792891  0.25059849     0.00100
C1006       C  0.25935141  0.90230983  0.27124153    -0.08400
C1007       C  0.27387678  0.91905292  0.29321372     0.62000
H1008       H  0.26878115  0.85829673  0.28828256     0.12700
H1009       H  0.21834892  0.91443503  0.21768167     0.12700
C1010       C  0.21093264  0.85337917  0.21437053     0.62200
F1011       F  0.28377408  0.89942228  0.31311607    -0.22900
F1012       F  0.25290627  0.93893730  0.30954046    -0.20200
F1013       F  0.29854902  0.93501957  0.27821844    -0.19900
F1014       F  0.18531928  0.84023846  0.23120655    -0.20000
F1015       F  0.22954720  0.83110979  0.19876407    -0.20300
F1016       F  0.20189903  0.87281988  0.19380744    -0.23000
C1017       C  0.22730138  0.73800205  0.13579166    -0.05800
C1018       C  0.25820570  0.73429707  0.13656049     0.00100
C1019       C  0.27867566  0.72310536  0.11087476    -0.08500
C1020       C  0.26788192  0.71951131  0.08462906    -0.05800
C1021       C  0.23811519  0.72746325  0.08327628     0.00100
C1022       C  0.21696920  0.73514220  0.10934480    -0.08400
C1023       C  0.18383912  0.74056130  0.10897083     0.62000
H1024       H  0.21121498  0.74447703  0.15585898     0.12700
H1025       H  0.28339786  0.71327813  0.06407115     0.12700
C1026       C  0.31186214  0.71637266  0.11022733     0.62200
F1027       F  0.16635001  0.74378074  0.13750513    -0.22900
F1028       F  0.17319987  0.71614081  0.09587334    -0.20200
F1029       F  0.18030858  0.76663637  0.09286229    -0.19900
F1030       F  0.31448370  0.69326352  0.13030359    -0.20000
F1031       F  0.32554317  0.74218140  0.11743997    -0.20300
F1032       F  0.32740434  0.70712767  0.08231137    -0.23000
C1033       C  0.28011808  0.78570342  0.36299866    -0.05800
C1034       C  0.25130452  0.78607510  0.35622584     0.00100
C1035       C  0.22503421  0.78962463  0.37934008    -0.08500
C1036       C  0.22885590  0.79133651  0.40869288    -0.05800
C1037       C  0.25740155  0.78801308  0.41535494     0.00100
C1038       C  0.28362140  0.78662104  0.39248796    -0.08400
C1039       C  0.31536874  0.78474645  0.39822643     0.62000
H1040       H  0.30007311  0.78361122  0.34517869     0.12700
H1041       H  0.20929778  0.79224517  0.42703486     0.12700
C1042       C  0.19304856  0.78895159  0.37378472     0.62200
F1043       F  0.33306428  0.80626420  0.38084601    -0.22900
F1044       F  0.32767226  0.75624148  0.39055561    -0.20200
F1045       F  0.31610079  0.79007255  0.42772560    -0.19900
F1046       F  0.18945939  0.76313325  0.35812253    -0.20000
F1047       F  0.18753753  0.81449755  0.35776475    -0.20300
F1048       F  0.17138357  0.78853258  0.40013776    -0.23000
C1049       C  0.13654131  0.74424657  0.21827792    -0.05800
C1050       C  0.15096147  0.73206379  0.23992135     0.00100
C1051       C  0.13836501  0.70769488  0.25842379    -0.08500
C1052       C  0.10951077  0.69840219  0.25680819    -0.05800
C1053       C  0.09305992  0.71346402  0.23810611     0.00100
C1054       C  0.10719502  0.73562097  0.21722440    -0.08400
C1055       C  0.09087020  0.75187445  0.19567349     0.62000
H1056       H  0.14752459  0.76224492  0.20387879     0.12700
H1057       H  0.09851311  0.68105243  0.27206993     0.12700
C1058       C  0.15475983  0.69251180  0.28062281     0.62200
F1059       F  0.10926414  0.77234433  0.17748291    -0.22900
F1060       F  0.06608923  0.76781299  0.21141978    -0.20200
F1061       F  0.08157661  0.73094480  0.17746403    -0.19900
F1062       F  0.15650119  0.71243101  0.30320829    -0.20000
F1063       F  0.18365942  0.68378951  0.26630911    -0.20300
F1064       F  0.14001777  0.66688369  0.29356063    -0.23000
C1065       C  0.41269066  0.76932186  0.27363224    -0.05800
C1066       C  0.41992237  0.73874890  0.27793116     0.00100
C1067       C  0.39751659  0.71659301  0.28250597    -0.08500
C1068       C  0.36899699  0.72507922  0.27780500    -0.05800
C1069       C  0.36299340  0.75490263  0.26919327     0.00100
C1070       C  0.38389827  0.77801250  0.26972763    -0.08400
C1071       C  0.37645153  0.81105517  0.26446434     0.62000
H1072       H  0.43045071  0.78587650  0.27075958     0.12700
H1073       H  0.35198195  0.70800534  0.27840680     0.12700
C1074       C  0.40448567  0.68404643  0.29033742     0.62200
F1075       F  0.40022067  0.82971608  0.26627505    -0.22900
F1076       F  0.35163116  0.82014178  0.28591772    -0.20200
F1077       F  0.36999208  0.81477933  0.23646979    -0.19900
F1078       F  0.41636349  0.68357642  0.31576158    -0.20000
F1079       F  0.42529360  0.67116376  0.26710107    -0.20300
F1080       F  0.37881608  0.66654846  0.29583520    -0.23000
C1081       C  0.37636121  0.76867370  0.01935354    -0.05800
C1082       C  0.40831383  0.75746329  0.49417514     0.00100
C1083       C  0.39611021  0.74455407  0.47078055    -0.08500
C1084       C  0.36412370  0.74526009  0.47237833    -0.05800
C1085       C  0.34311340  0.76015417  0.49516168     0.00100
C1086       C  0.34462347  0.77161996  0.01976287    -0.08400
C1087       C  0.32523327  0.79219270  0.04274544     0.62000
H1088       H  0.38585844  0.78144791  0.03502842     0.12700
H1089       H  0.35517736  0.73458312  0.45505898     0.12700
C1090       C  0.41654455  0.73010478  0.44375571     0.62200
F1091       F  0.34136347  0.80370210  0.06247007    -0.22900
F1092       F  0.30132594  0.77619873  0.05922989    -0.20200
F1093       F  0.31427501  0.81643687  0.02850227    -0.19900
F1094       F  0.40032316  0.71804514  0.42438731    -0.20000
F1095       F  0.43363674  0.70684595  0.45276820    -0.20300
F1096       F  0.43537782  0.75181541  0.42806265    -0.23000
C1097       C  0.10221448  0.73469252  0.98079000    -0.05800
C1098       C  0.08068540  0.74883301  0.00383408     0.00100
C1099       C  0.10495175  0.76952834  0.51865645    -0.08500
C1100       C  0.13689550  0.76864675  0.51767901    -0.05800
C1101       C  0.14617762  0.74926853  0.00192407     0.00100
C1102       C  0.13422696  0.73477010  0.97928859    -0.08400
C1103       C  0.15530884  0.72036390  0.95266298     0.62000
H1104       H  0.09369663  0.72322121  0.96363760     0.12700
H1105       H  0.14584696  0.78267670  0.53282234     0.12700
C1106       C  0.08503268  0.79147323  0.53975174     0.62200
F1107       F  0.14010282  0.71188139  0.93096326    -0.22900
F1108       F  0.16914330  0.69473991  0.96174657    -0.20200
F1109       F  0.17710613  0.74080986  0.93975011    -0.19900
F1110       F  0.06594372  0.77546946  0.56193963    -0.20000
F1111       F  0.06811249  0.80937675  0.52414392    -0.20300
F1112       F  0.10180844  0.81060464  0.55330427    -0.23000
C1113       C  0.27168615  0.49255330  0.34860084    -0.05800
C1114       C  0.25181280  0.01078876  0.33533228     0.00100
C1115       C  0.23170479  0.02921655  0.35686682    -0.08500
C1116       C  0.23367116  0.02896400  0.38796717    -0.05800
C1117       C  0.25425872  0.01036727  0.39983827     0.00100
C1118       C  0.27273180  0.49137784  0.37987227    -0.08400
C1119       C  0.29630378  0.47112987  0.38981525     0.62000
H1120       H  0.28770685  0.47901659  0.33297565     0.12700
H1121       H  0.21838879  0.04317275  0.40365258     0.12700
C1122       C  0.20825596  0.04985917  0.34717046     0.62200
F1123       F  0.31504523  0.45673904  0.36599559    -0.22900
F1124       F  0.28226972  0.44899541  0.40925339    -0.20200
F1125       F  0.31409827  0.48832655  0.40401669    -0.19900
F1126       F  0.18694831  0.03258914  0.33781985    -0.20000
F1127       F  0.22199860  0.06860832  0.32405211    -0.20300
F1128       F  0.19329192  0.06812892  0.37018338    -0.23000
C1129       C  0.23095069  0.99067162  0.10594806    -0.05800
C1130       C  0.25316314  0.50640354  0.08605505     0.00100
C1131       C  0.27136805  0.52584562  0.09965679    -0.08500
C1132       C  0.27043007  0.52428376  0.13141078    -0.05800
C1133       C  0.25152019  0.50451593  0.15152132     0.00100
C1134       C  0.22911414  0.99109269  0.13780951    -0.08400
C1135       C  0.20322707  0.97494669  0.15814328     0.62000
H1136       H  0.21458463  0.97805727  0.09742173     0.12700
H1137       H  0.28435548  0.53927453  0.14100223     0.12700
C1138       C  0.29277987  0.54778589  0.08052472     0.62200
F1139       F  0.18599895  0.95893742  0.14224466    -0.22900
F1140       F  0.18443095  0.99605287  0.17532567    -0.20200
F1141       F  0.21437680  0.95464458  0.17655625    -0.19900
F1142       F  0.27644388  0.57007047  0.06905458    -0.20000
F1143       F  0.31127921  0.53233967  0.05731424    -0.20300
F1144       F  0.31107631  0.56188236  0.09669145    -0.23000
C1145       C  0.98967160  0.81928565  0.23986892    -0.05800
C1146       C  0.51208568  0.81568862  0.25465182     0.00100
C1147       C  0.49932789  0.83346008  0.28015252    -0.08500
C1148       C  0.49859911  0.86548887  0.27738128    -0.05800
C1149       C  0.51126987  0.88081261  0.25068125     0.00100
C1150       C  0.98878877  0.85123590  0.23665140    -0.08400
C1151       C  0.97304056  0.86583190  0.21377548     0.62000
H1152       H  0.97812624  0.80550783  0.22658609     0.12700
H1153       H  0.48860350  0.87909126  0.29657626     0.12700
C1154       C  0.48629713  0.81906408  0.31035656     0.62200
F1155       F  0.96098815  0.84445044  0.19800315    -0.22900
F1156       F  0.99358807  0.88263976  0.19360626    -0.20200
F1157       F  0.52000524  0.89814836  0.18678792    -0.19900
F1158       F  0.05914070  0.78733996  0.28314997    -0.20000
F1159       F  0.46446327  0.79843493  0.30771310    -0.20300
F1160       F  0.47296428  0.84037933  0.33121290    -0.23000
C1161       C  0.98043340  0.60340178  0.28182324    -0.05800
C1162       C  0.50292514  0.63086975  0.25429298     0.00100
C1163       C  0.52372106  0.61331393  0.23337105    -0.08500
C1164       C  0.52156566  0.58139067  0.23419051    -0.05400
C1165       C  0.49907526  0.56596433  0.25469010     0.00100
C1166       C  0.97866710  0.57128686  0.28117557    -0.08400
C1167       C  0.95359339  0.55583725  0.30339096     0.62000
H1168       H  0.96363385  0.61646462  0.29721507     0.12700
H1169       H  0.53751483  0.56816414  0.21816687     0.12700
C1170       C  0.54872462  0.62810587  0.21056815     0.62200
F1171       F  0.93690849  0.57620434  0.32341798    -0.22900
F1172       F  0.96585524  0.53418842  0.31972428    -0.20200
F1173       F  0.43268354  0.55584783  0.28408696    -0.19900
F1174       F  0.06621387  0.63664139  0.23975964    -0.20000
F1175       F  0.53636711  0.64503709  0.19038542    -0.20300
F1176       F  0.56849098  0.60685751  0.19464092    -0.23000
C1177       C  0.03936130  0.85156905  0.47621266    -0.05800
C1178       C  0.00961627  0.84239486  0.48681127     0.00100
C1179       C  0.47159679  0.85714927  0.00341217    -0.08500
C1180       C  0.47812072  0.88815359  0.00099377    -0.05800
C1181       C  0.02337363  0.90422052  0.48344569     0.00100
C1182       C  0.04697624  0.88229424  0.47487493    -0.08400
C1183       C  0.07989878  0.89085719  0.46412200     0.62000
H1184       H  0.05675573  0.83422158  0.46979096     0.12700
H1185       H  0.46086814  0.90455245  0.01088190     0.12700
C1186       C  0.44019666  0.84686337  0.01863482     0.62200
F1187       F  0.09837140  0.86572089  0.45541701    -0.22900
F1188       F  0.09008526  0.90465258  0.48695467    -0.20200
F1189       F  0.08288702  0.91042415  0.43986237    -0.19900
F1190       F  0.44124120  0.83247804  0.04539582    -0.20000
F1191       F  0.42944601  0.82698427  0.00039307    -0.20300
F1192       F  0.41989368  0.87104678  0.02459196    -0.23000
C1193       C  0.96046772  0.64755663  0.03904484    -0.05800
C1194       C  0.48327517  0.65650443  0.01594045     0.00100
C1195       C  0.49939647  0.64636207  0.53577296    -0.08500
C1196       C  0.49541321  0.61478925  0.53753158    -0.05800
C1197       C  0.47569884  0.59372939  0.02734441     0.00100
C1198       C  0.95634214  0.61648986  0.04593554    -0.08400
C1199       C  0.93035273  0.60703445  0.07099558     0.62000
H1200       H  0.94464282  0.66417503  0.05101726     0.12700
H1201       H  0.50280949  0.60153768  0.55482974     0.12700
C1202       C  0.51391473  0.66169473  0.55857227     0.62200
F1203       F  0.91671054  0.63171801  0.08723092    -0.22900
F1204       F  0.94084256  0.58745812  0.09053486    -0.20200
F1205       F  0.90858490  0.59286555  0.05925742    -0.19900
F1206       F  0.49293149  0.68043106  0.57647407    -0.20000
F1207       F  0.53820484  0.67861799  0.54415559    -0.20300
F1208       F  0.52441780  0.64081914  0.57699796    -0.23000
C1209       C  0.39608034  0.51800492  0.44835299    -0.05800
C1210       C  0.40813649  0.49269854  0.46056516     0.00100
C1211       C  0.37926466  0.96995402  0.97525317    -0.08500
C1212       C  0.34963713  0.97216707  0.97132059    -0.05800
C1213       C  0.34593232  0.49789086  0.46483920     0.00100
C1214       C  0.36500694  0.52135789  0.45038150    -0.08400
C1215       C  0.35329709  0.55099371  0.43925837     0.62000
H1216       H  0.41089991  0.53671171  0.44025366     0.12700
H1217       H  0.33580053  0.95217695  0.97497626     0.12700
C1218       C  0.39173024  0.93966789  0.98422252     0.62200
F1219       F  0.34174905  0.56961329  0.46319619    -0.22900
F1220       F  0.33115969  0.54537833  0.42350498    -0.20200
F1221       F  0.37607952  0.56654796  0.42033011    -0.19900
F1222       F  0.39892008  0.94194145  0.01196483    -0.20000
F1223       F  0.41734764  0.93143544  0.96341684    -0.20300
F1224       F  0.37112892  0.91661007  0.98579925    -0.23000
C1225       C  0.15428340  0.54847922  0.51041068    -0.05800
C1226       C  0.15774083  0.01041082  0.02420757     0.00100
C1227       C  0.14232993  0.98606185  0.04124157    -0.08500
C1228       C  0.11085638  0.98643900  0.04704567    -0.05800
C1229       C  0.09490623  0.01013029  0.03664094     0.00100
C1230       C  0.12312601  0.54871900  0.51190534    -0.08400
C1231       C  0.10877314  0.57321994  0.49560960     0.62000
H1232       H  0.16817220  0.56533126  0.49685709     0.12700
H1233       H  0.09854573  0.96673503  0.05708864     0.12700
C1234       C  0.15835703  0.95902102  0.05228035     0.62200
F1235       F  0.12861268  0.59644967  0.48547097    -0.22900
F1236       F  0.08377369  0.58560813  0.51471274    -0.20200
F1237       F  0.09993663  0.56089705  0.47129776    -0.19900
F1238       F  0.18184186  0.96885481  0.06431890    -0.20000
F1239       F  0.16935539  0.93946253  0.02899029    -0.20300
F1240       F  0.13910434  0.94291551  0.07436138    -0.23000
C1241       C  0.05167167  0.99423409  0.36189354    -0.05800
C1242       C  0.54168955  0.97671937  0.38787744     0.00100
C1243       C  0.52643422  0.95157205  0.37973074    -0.08500
C1244       C  0.52534217  0.94836778  0.34980242    -0.05800
C1245       C  0.53858535  0.96963869  0.32836508     0.00100
C1246       C  0.04896343  0.98995428  0.33229497    -0.08400
C1247       C  0.07041778  0.50121531  0.30795711     0.62000
H1248       H  0.06381586  0.01341082  0.36765666     0.12700
H1249       H  0.51228411  0.93036488  0.34314377     0.12700
C1250       C  0.51064826  0.92872852  0.40254725     0.62200
F1251       F  0.08724549  0.52191167  0.31967237    -0.22900
F1252       F  0.05070879  0.51736560  0.29410788    -0.20200
F1253       F  0.08418275  0.99648556  0.28643217    -0.19900
F1254       F  0.48709200  0.94273135  0.42211179    -0.20000
F1255       F  0.53107114  0.91656844  0.41810092    -0.20300
F1256       F  0.49891177  0.90502719  0.38934724    -0.23000
C1257       C  0.96574879  0.45338542  0.15797252    -0.05800
C1258       C  0.97210331  0.47694112  0.17573787     0.00100
C1259       C  0.46928385  0.01451994  0.17153530    -0.08500
C1260       C  0.46569747  0.51781762  0.13233503    -0.05800
C1261       C  0.96251882  0.48968704  0.11846834     0.00100
C1262       C  0.96114887  0.45930278  0.12903828    -0.08400
C1263       C  0.95641600  0.43334055  0.10920645     0.62000
H1264       H  0.96611189  0.43027657  0.16628407     0.12700
H1265       H  0.46112212  0.04193479  0.13463544     0.12700
C1266       C  0.47471807  0.04153221  0.18969786     0.62200
F1267       F  0.95550942  0.40559416  0.12390163    -0.22900
F1268       F  0.97978096  0.43219291  0.08426744    -0.20200
F1269       F  0.92936101  0.43773312  0.10022085    -0.19900
F1270       F  0.50870947  0.53812313  0.18057278    -0.20000
F1271       F  0.45696849  0.03958732  0.21818047    -0.20300
F1272       F  0.46782444  0.06879275  0.17708312    -0.23000
O1273       O  0.06556125  0.97993102  0.01338366    -0.80900
O1274       O  0.44362069  0.98118541  0.97874184    -0.65600
O1275       O  0.02179102  0.50394779  0.98698768    -1.12200
C1276       C  0.97807898  0.51030036  0.57690393     1.06000
O1277       O  0.43673154  0.51898480  0.48816953    -0.78800
O1278       O  0.45610253  0.55345958  0.52752491    -0.66400
Ni1279     Ni  0.05482209  0.98234890  0.97519153     1.34900
C1280       C  0.48123019  0.56636003  0.51906345     0.84700
O1281       O  0.49607768  0.99304226  0.94349707    -0.79400
O1282       O  0.04611026  0.98293251  0.93560068    -0.89600
C1283       C  0.42635833  0.50091125  0.97538107     0.84300
O1284       O  0.03771310  0.94351286  0.98349026    -0.67800
O1285       O  0.45238110  0.50504142  0.56608665    -0.87100
C1286       C  0.01206518  0.93381556  0.98204415     0.85100
C1287       C  0.52206397  0.98694907  0.92761166     1.06700
H1288       H  0.48358782  0.97360040  0.52305080     0.38500
O1289       O  0.48394755  0.99443212  0.51617191    -1.09800
O1290       O  0.00700058  0.55249217  0.51075345    -0.66400
Ni1291     Ni  0.01881419  0.51182774  0.51820008     1.26300
O1292       O  0.48888305  0.94895987  0.98547237    -0.66700
O1293       O  0.00363777  0.51590611  0.56007468    -0.79000
C1294       C  0.08118701  0.01388950  0.51784570     0.84500
O1295       O  0.05540116  0.52863078  0.52287034    -0.66100
Ni1296     Ni  0.44519470  0.51184457  0.52679165     1.27400
Ni1297     Ni  0.48130686  0.99178941  0.98529181     1.26100
H1298       H  0.02608087  0.52457382  0.98020582     0.39000
O1299       O  0.01695727  0.50090511  0.69945712    -0.74500
O1300       O  0.03642336  0.99681989  0.77964252    -0.74500
O1301       O  0.02672830  0.95425937  0.74035995    -0.74500
O1302       O  0.02655617  0.54275393  0.73881360    -0.74600
O1303       O  0.47840817  0.53948133  0.76021917    -0.74500
O1304       O  0.47741036  0.95192560  0.76334972    -0.74500
O1305       O  0.48739795  0.99324138  0.80315166    -0.74500
O1306       O  0.46748231  0.49858178  0.72040838    -0.74500
Ni1307     Ni  0.02972635  0.49890380  0.73630287     1.25400
Ni1308     Ni  0.47497258  0.99572581  0.76607373     1.25400
C1309       C  0.48823516  0.49947679  0.69669754     0.87700
C1310       C  0.51523521  0.99253117  0.80494696     0.87700
C1311       C  0.50200107  0.93770974  0.75158170     0.87700
C1312       C  0.50226943  0.55445565  0.74927552     0.87900
O1313       O  0.20567564  0.53378247  0.00776935    -0.74500
O1314       O  0.29073404  0.53085897  0.98097575    -0.74500
O1315       O  0.24442787  0.53226901  0.95159663    -0.74500
O1316       O  0.26336746  0.53499765  0.53403714    -0.74600
O1317       O  0.25766730  0.98685927  0.53533739    -0.74500
O1318       O  0.24354199  0.98083964  0.95109126    -0.74500
O1319       O  0.29769338  0.98056935  0.48043936    -0.74500
O1320       O  0.21259717  0.99332984  0.50506886    -0.74500
Ni1321     Ni  0.24829420  0.53396015  0.99420330     1.25400
Ni1322     Ni  0.25484720  0.98504089  0.49274270     1.25400
C1323       C  0.20064118  0.51911010  0.51115432     0.87700
C1324       C  0.30438984  0.50523548  0.97668532     0.87700
C1325       C  0.24452728  0.50708813  0.93722016     0.87700
C1326       C  0.26044997  0.51030344  0.55001613     0.87900
O1327       O  0.99282560  0.70150186  0.98397676    -0.74500
O1328       O  0.99644875  0.78752703  0.97080544    -0.74500
O1329       O  0.03783437  0.74370315  0.97853611    -0.74500
O1330       O  0.45138040  0.74457491  0.97658234    -0.74600
O1331       O  0.45022859  0.75857719  0.52119058    -0.74500
O1332       O  0.03729848  0.75414991  0.52270744    -0.74500
O1333       O  0.49609490  0.79883377  0.51774295    -0.74500
O1334       O  0.49009199  0.71347322  0.52982239    -0.74500
Ni1335     Ni  0.99494708  0.74429491  0.97567232     1.25400
Ni1336     Ni  0.49281311  0.75646515  0.52522133     1.25400
C1337       C  0.98624166  0.69105547  0.01072701     0.87700
C1338       C  0.99099464  0.80519323  0.99332712     0.87700
C1339       C  0.04640697  0.74789037  0.00330025     0.87700
C1340       C  0.43054377  0.74849976  0.00035505     0.87900
O1341       O  0.46359741  0.74665823  0.78898953    -0.74500
O1342       O  0.04756728  0.74555586  0.75518370    -0.74500
O1343       O  0.50699353  0.78839992  0.77313869    -0.74500
O1344       O  0.50441164  0.70095647  0.77152754    -0.74600
O1345       O  0.99488561  0.70540998  0.72804107    -0.74500
O1346       O  0.99490304  0.79305368  0.73020365    -0.74500
O1347       O  0.03656603  0.74864938  0.70996797    -0.74500
O1348       O  0.45559042  0.74871671  0.74252227    -0.74500
Ni1349     Ni  0.50601631  0.74457148  0.77400404     1.25400
Ni1350     Ni  0.99442702  0.74927814  0.72750822     1.25400
C1351       C  0.44589516  0.74885106  0.77085057     0.87700
C1352       C  0.05569839  0.74630599  0.72670379     0.87700
C1353       C  0.50257624  0.80439378  0.75080121     0.87700
C1354       C  0.50100477  0.68761109  0.74777367     0.87900
O1355       O  0.33122272  0.74171099  0.73834512    -0.80900
O1356       O  0.19979488  0.74772945  0.71416227    -0.65600
O1357       O  0.27755253  0.76464959  0.72592187    -1.12200
C1358       C  0.23522399  0.77599752  0.82580725     1.06000
O1359       O  0.17059920  0.76784556  0.75511960    -0.78800
O1360       O  0.21161647  0.81118077  0.75969321    -0.66400
Ni1361     Ni  0.30932945  0.73762646  0.70705339     1.34900
C1362       C  0.23735214  0.82181262  0.76003500     0.84700
O1363       O  0.25093403  0.76033633  0.67851286    -0.79400
O1364       O  0.29176578  0.73057285  0.67269085    -0.89600
C1365       C  0.17442089  0.75508959  0.72985245     0.84300
O1366       O  0.29017763  0.70294429  0.72698465    -0.67800
O1367       O  0.21437647  0.78884401  0.81522735    -0.87100
C1368       C  0.26430970  0.69416256  0.72477229     0.85100
C1369       C  0.27003372  0.74265665  0.66280572     1.06700
H1370       H  0.22338012  0.73087332  0.76888167     0.38500
O1371       O  0.22748639  0.75174022  0.76272311    -1.09800
O1372       O  0.25807138  0.80584329  0.76831976    -0.66400
Ni1373     Ni  0.26615879  0.76223724  0.76818217     1.26300
O1374       O  0.24447119  0.71212542  0.71787691    -0.66700
O1375       O  0.25444916  0.75866722  0.80995599    -0.79000
C1376       C  0.32856324  0.75771866  0.76167082     0.84500
O1377       O  0.30480598  0.77211564  0.77333245    -0.66100
Ni1378     Ni  0.19508285  0.77731624  0.78306997     1.27400
Ni1379     Ni  0.23861714  0.75585940  0.72014636     1.26100
H1380       H  0.28272082  0.78510643  0.71919515     0.39000
O1381       O  0.24735709  0.74231218  0.95258882    -0.74500
O1382       O  0.25012048  0.71521025  0.52711687    -0.74500
O1383       O  0.21054671  0.72887967  0.48950967    -0.74500
O1384       O  0.29805273  0.73487440  0.48584378    -0.74600
O1385       O  0.27991188  0.77857240  0.00614325    -0.74500
O1386       O  0.19207857  0.77489858  0.00951907    -0.74500
O1387       O  0.24176896  0.76217263  0.54514061    -0.74500
O1388       O  0.24170866  0.79056341  0.96723315    -0.74500
Ni1389     Ni  0.25470127  0.73010925  0.48716793     1.25400
Ni1390     Ni  0.23575557  0.77864249  0.00821634     1.25400
C1391       C  0.24589750  0.77067159  0.94669688     0.87700
C1392       C  0.24600361  0.73376710  0.54881379     0.87700
C1393       C  0.19219390  0.75143084  0.49828404     0.87700
C1394       C  0.29728391  0.75499581  0.99876911     0.87900
O1395       O  0.22516707  0.55206041  0.74613774    -0.74500
O1396       O  0.22520865  0.96562818  0.74707556    -0.74500
O1397       O  0.22188570  0.00916278  0.79025146    -0.74500
O1398       O  0.22885338  0.50777483  0.70355874    -0.74600
O1399       O  0.27880899  0.50856160  0.69604400    -0.74500
O1400       O  0.27173450  0.00800228  0.78312443    -0.74500
O1401       O  0.27546099  0.96510735  0.73946830    -0.74500
O1402       O  0.27539757  0.55173086  0.73962077    -0.74500
Ni1403     Ni  0.22309552  0.00900295  0.74655049     1.25400
Ni1404     Ni  0.27770251  0.50841182  0.73989203     1.25400
C1405       C  0.25013131  0.56606823  0.74251079     0.87700
C1406       C  0.25039843  0.95111139  0.74412474     0.87700
C1407       C  0.24573731  0.00841840  0.80164531     0.87700
C1408       C  0.25475008  0.50806196  0.68495982     0.87900
C1409       C  0.24669562  0.61213064  0.71290940    -0.05800
C1410       C  0.25016975  0.59923143  0.74005820     0.00100
C1411       C  0.25597493  0.61774303  0.76302512    -0.08500
C1412       C  0.25989701  0.64895426  0.75732259    -0.05800
C1413       C  0.25743647  0.66182272  0.72976591     0.00100
C1414       C  0.25033579  0.64336245  0.70719348    -0.08400
C1415       C  0.24863677  0.65605040  0.67658766     0.62000
H1416       H  0.24228127  0.59723862  0.69577185     0.12700
H1417       H  0.26503412  0.66360498  0.77430263     0.12700
C1418       C  0.25713245  0.60457850  0.79352492     0.62200
F1419       F  0.24274443  0.63374359  0.65773288    -0.22900
F1420       F  0.27588452  0.66889933  0.66352907    -0.20200
F1421       F  0.22586582  0.67779208  0.67911700    -0.19900
F1422       F  0.27999178  0.58288701  0.79103627    -0.20000
F1423       F  0.22981766  0.59129992  0.80568294    -0.20300
F1424       F  0.26229556  0.62665406  0.81296273    -0.23000
C1425       C  0.25883215  0.87021753  0.77097959    -0.05800
C1426       C  0.24261268  0.85443173  0.75327533     0.00100
C1427       C  0.23079441  0.87036741  0.73103452    -0.08500
C1428       C  0.23452321  0.90193355  0.72838267    -0.05800
C1429       C  0.25009270  0.91772736  0.74656075     0.00100
C1430       C  0.26249197  0.90177677  0.76829947    -0.08400
C1431       C  0.27767767  0.91817231  0.78991892     0.62000
H1432       H  0.26759623  0.85773970  0.78791815     0.12700
H1433       H  0.22458350  0.91472105  0.71248043     0.12700
C1434       C  0.21459918  0.85440739  0.70992433     0.62200
F1435       F  0.28546367  0.89862884  0.81108783    -0.22900
F1436       F  0.25817254  0.94012358  0.80485039    -0.20200
F1437       F  0.30375213  0.93168555  0.77453172    -0.19900
F1438       F  0.18647609  0.84519532  0.72518858    -0.20000
F1439       F  0.23147433  0.82942153  0.69759208    -0.20300
F1440       F  0.21037970  0.87330106  0.68670240    -0.23000
C1441       C  0.23412647  0.73462061  0.63052067    -0.05800
C1442       C  0.26447174  0.73389049  0.63349295     0.00100
C1443       C  0.28763022  0.72520665  0.60880958    -0.08500
C1444       C  0.27941480  0.71953518  0.58152133    -0.05800
C1445       C  0.24953587  0.72375845  0.57822596     0.00100
C1446       C  0.22629388  0.72945337  0.60322617    -0.08400
C1447       C  0.19351386  0.73321909  0.60098137     0.62000
H1448       H  0.21623259  0.74021059  0.64955267     0.12700
H1449       H  0.29675458  0.71523827  0.56167501     0.12700
C1450       C  0.32089263  0.72448597  0.61023057     0.62200
F1451       F  0.17494194  0.71993688  0.62551900    -0.22900
F1452       F  0.18805331  0.71959596  0.57565510    -0.20200
F1453       F  0.18621721  0.76379835  0.60016704    -0.19900
F1454       F  0.32646429  0.70149250  0.62926717    -0.20000
F1455       F  0.32867949  0.75204549  0.62030686    -0.20300
F1456       F  0.33948297  0.71930524  0.58253511    -0.23000
C1457       C  0.26706890  0.77483445  0.86329231    -0.05800
C1458       C  0.23854028  0.78161193  0.85680030     0.00100
C1459       C  0.21436589  0.79119227  0.88023993    -0.08500
C1460       C  0.21906762  0.79059518  0.90956424    -0.05800
C1461       C  0.24631844  0.77988700  0.91592104     0.00100
C1462       C  0.27126027  0.77340336  0.89265988    -0.08400
C1463       C  0.30196812  0.76485241  0.89900969     0.62000
H1464       H  0.28591178  0.76912121  0.84524363     0.12700
H1465       H  0.20066370  0.79614319  0.92812301     0.12700
C1466       C  0.18334033  0.80032976  0.87504896     0.62200
F1467       F  0.32400034  0.76258888  0.87302960    -0.22900
F1468       F  0.30062437  0.73719182  0.91378103    -0.20200
F1469       F  0.31058112  0.78681367  0.91664774    -0.19900
F1470       F  0.17118091  0.77648820  0.86249705    -0.20000
F1471       F  0.18571317  0.82542573  0.85628717    -0.20300
F1472       F  0.16337839  0.80788771  0.90136417    -0.23000
C1473       C  0.13457514  0.77116966  0.70419060    -0.05800
C1474       C  0.14766792  0.74807662  0.71877511     0.00100
C1475       C  0.13266194  0.72050793  0.72674545    -0.08500
C1476       C  0.10268114  0.71870604  0.72394904    -0.05800
C1477       C  0.08792050  0.74382415  0.71413105     0.00100
C1478       C  0.10443426  0.76931948  0.70145770    -0.08400
C1479       C  0.08966377  0.79513300  0.68729151     0.62000
H1480       H  0.14719477  0.79162667  0.69737287     0.12700
H1481       H  0.08949280  0.69912630  0.73284370     0.12700
C1482       C  0.14743716  0.69423466  0.74035036     0.62200
F1483       F  0.11039155  0.81681528  0.67472603    -0.22900
F1484       F  0.06743715  0.80905506  0.70851274    -0.20200
F1485       F  0.07685826  0.78384374  0.66493781    -0.19900
F1486       F  0.15328937  0.70269756  0.76746894    -0.20000
F1487       F  0.17427362  0.68606355  0.72133122    -0.20300
F1488       F  0.12923043  0.66900434  0.74506392    -0.23000
C1489       C  0.40178805  0.78168600  0.77712552    -0.05800
C1490       C  0.41370473  0.75293483  0.78187703     0.00100
C1491       C  0.39484310  0.72765281  0.78838360    -0.08500
C1492       C  0.36498092  0.73103330  0.78511390    -0.05800
C1493       C  0.35447347  0.75876630  0.77553187     0.00100
C1494       C  0.37198024  0.78509111  0.77368190    -0.08400
C1495       C  0.36016879  0.81581060  0.76544297     0.62000
H1496       H  0.41693497  0.80072560  0.77277666     0.12700
H1497       H  0.35058040  0.71143849  0.78714137     0.12700
C1498       C  0.40698809  0.69695121  0.79615388     0.62200
F1499       F  0.38119926  0.83831725  0.76477143    -0.22900
F1500       F  0.33444941  0.82377143  0.78629505    -0.20200
F1501       F  0.35323606  0.81456392  0.73752326    -0.19900
F1502       F  0.42050908  0.69983959  0.82030634    -0.20000
F1503       F  0.42809133  0.68603857  0.77206636    -0.20300
F1504       F  0.38425372  0.67591167  0.80362171    -0.23000
C1505       C  0.38720029  0.77236533  0.51698907    -0.05800
C1506       C  0.39656201  0.75011520  0.99898661     0.00100
C1507       C  0.38344581  0.73338603  0.97851977    -0.08500
C1508       C  0.35166878  0.73600397  0.97919997    -0.05800
C1509       C  0.33152580  0.75496755  0.99918546     0.00100
C1510       C  0.35545680  0.77484482  0.51741666    -0.08400
C1511       C  0.33532133  0.79343399  0.54168235     0.62000
H1512       H  0.39598341  0.78296522  0.53444792     0.12700
H1513       H  0.34219935  0.72310191  0.96359557     0.12700
C1514       C  0.40264984  0.71185747  0.95637278     0.62200
F1515       F  0.35092606  0.80391762  0.56229685    -0.22900
F1516       F  0.31182497  0.77605286  0.55684617    -0.20200
F1517       F  0.32374422  0.81837311  0.52894389    -0.19900
F1518       F  0.38534881  0.69518779  0.94107927    -0.20000
F1519       F  0.41812083  0.69161081  0.97127262    -0.20300
F1520       F  0.42301752  0.72816328  0.93556470    -0.23000
C1521       C  0.11322369  0.73309409  0.47883909    -0.05800
C1522       C  0.09223837  0.75086905  0.49930662     0.00100
C1523       C  0.09286056  0.76448244  0.02575336    -0.08500
C1524       C  0.12485760  0.76424911  0.02439002    -0.05800
C1525       C  0.15783404  0.75015317  0.49790327     0.00100
C1526       C  0.14526199  0.73242339  0.47763011    -0.08400
C1527       C  0.16558987  0.71346260  0.45379263     0.62000
H1528       H  0.10418489  0.71933717  0.46354542     0.12700
H1529       H  0.13357959  0.77582998  0.04135245     0.12700
C1530       C  0.07235989  0.78247076  0.05025393     0.62200
F1531       F  0.14974477  0.70081503  0.43440581    -0.22900
F1532       F  0.17887015  0.69000428  0.46702485    -0.20200
F1533       F  0.18778437  0.73144741  0.43707786    -0.19900
F1534       F  0.05400285  0.76293615  0.06956840    -0.20000
F1535       F  0.05475173  0.80281685  0.03780653    -0.20300
F1536       F  0.08858463  0.79892932  0.06680536    -0.23000
C1537       C  0.27090188  0.50045635  0.84908269    -0.05800
C1538       C  0.24374427  0.00756117  0.83650609     0.00100
C1539       C  0.21763994  0.01610143  0.85903514    -0.08500
C1540       C  0.21881465  0.01609392  0.89036273    -0.05800
C1541       C  0.24411558  0.00566613  0.90152613     0.00100
C1542       C  0.27117311  0.49864417  0.88051647    -0.08400
C1543       C  0.29949155  0.48726586  0.89005034     0.62000
H1544       H  0.29131375  0.49471236  0.83295402     0.12700
H1545       H  0.19922792  0.02351755  0.90677137     0.12700
C1546       C  0.18794912  0.02457237  0.85047035     0.62200
F1547       F  0.32283597  0.48116830  0.86586863    -0.22900
F1548       F  0.29333629  0.46081073  0.90661314    -0.20200
F1549       F  0.30914309  0.50883835  0.90724638    -0.19900
F1550       F  0.17769434  0.00000362  0.83726579    -0.20000
F1551       F  0.19180862  0.04890195  0.83079926    -0.20300
F1552       F  0.16576734  0.03262773  0.87501596    -0.23000
C1553       C  0.24450267  0.98895839  0.60197515    -0.05800
C1554       C  0.26036562  0.51030927  0.58449741     0.00100
C1555       C  0.27347972  0.53319693  0.59965562    -0.08500
C1556       C  0.27187563  0.53129058  0.63152871    -0.05800
C1557       C  0.25678223  0.50797712  0.65025516     0.00100
C1558       C  0.24181951  0.98739501  0.63390257    -0.08400
C1559       C  0.22464844  0.96147854  0.65133652     0.62000
H1560       H  0.23337483  0.97217275  0.59131561     0.12700
H1561       H  0.28189073  0.54884118  0.64235216     0.12700
C1562       C  0.28936131  0.55991968  0.58232769     0.62200
F1563       F  0.21406472  0.94155135  0.63300175    -0.22900
F1564       F  0.20006802  0.97266781  0.67181654    -0.20200
F1565       F  0.24364153  0.94542887  0.66612459    -0.19900
F1566       F  0.26854185  0.57799330  0.57173675    -0.20000
F1567       F  0.31137019  0.54962203  0.55861759    -0.20300
F1568       F  0.30325820  0.57776360  0.59988619    -0.23000
C1569       C  0.00696093  0.85661036  0.72581811    -0.05800
C1570       C  0.50234101  0.83868009  0.75193582     0.00100
C1571       C  0.49444178  0.85551723  0.77898860    -0.08500
C1572       C  0.49489065  0.88763540  0.77768097    -0.05800
C1573       C  0.50235639  0.90372340  0.75059815     0.00100
C1574       C  0.00744090  0.88868089  0.72394672    -0.08400
C1575       C  0.01179414  0.90439865  0.69375620     0.62000
H1576       H  0.01129866  0.84354007  0.70548003     0.12700
H1577       H  0.48946067  0.90065994  0.79805425     0.12700
C1578       C  0.48455735  0.84011274  0.80926050     0.62200
F1579       F  0.01422792  0.88393116  0.67068095    -0.22900
F1580       F  0.03782850  0.92123324  0.68874854    -0.20200
F1581       F  0.48846688  0.92143977  0.69269097    -0.19900
F1582       F  0.00933838  0.82738116  0.81758002    -0.20000
F1583       F  0.46125350  0.82050223  0.80857084    -0.20300
F1584       F  0.47419810  0.86084573  0.83172465    -0.23000
C1585       C  0.98782520  0.63974238  0.77565706    -0.05800
C1586       C  0.50136867  0.65355785  0.74711748     0.00100
C1587       C  0.51853626  0.63641021  0.72312078    -0.08500
C1588       C  0.51828573  0.60431432  0.72497430    -0.05400
C1589       C  0.50141372  0.58861082  0.74974627     0.00100
C1590       C  0.98676544  0.60767358  0.77698275    -0.08400
C1591       C  0.97058459  0.59225418  0.80562418     0.62000
H1592       H  0.97773547  0.65280796  0.79517646     0.12700
H1593       H  0.53107211  0.59109900  0.70665419     0.12700
C1594       C  0.53793231  0.65178583  0.69605505     0.62200
F1595       F  0.96271378  0.61256696  0.82889058    -0.22900
F1596       F  0.98888483  0.56995336  0.81428715    -0.20200
F1597       F  0.44200455  0.57636561  0.79545219    -0.19900
F1598       F  0.04945772  0.67466024  0.69893309    -0.20000
F1599       F  0.51971632  0.66720234  0.67993943    -0.20300
F1600       F  0.55559856  0.63107155  0.67720353    -0.23000
C1601       C  0.02394538  0.84788148  0.97580361    -0.05800
C1602       C  0.99492704  0.83799895  0.98868508     0.00100
C1603       C  0.48576310  0.86371378  0.49706526    -0.08500
C1604       C  0.49309359  0.89449898  0.49532179    -0.05800
C1605       C  0.00717510  0.90054717  0.98332896     0.00100
C1606       C  0.03075407  0.87886066  0.97298331    -0.08400
C1607       C  0.06298261  0.88780037  0.95891365     0.62000
H1608       H  0.04159494  0.83088496  0.96888940     0.12700
H1609       H  0.47542720  0.91144977  0.50231204     0.12700
C1610       C  0.45323616  0.85427466  0.50852601     0.62200
F1611       F  0.08054866  0.86310941  0.94680149    -0.22900
F1612       F  0.07649248  0.90007716  0.98031081    -0.20200
F1613       F  0.06292867  0.90870193  0.93612539    -0.19900
F1614       F  0.45068407  0.83854270  0.53521309    -0.20000
F1615       F  0.44434462  0.83590123  0.48784522    -0.20300
F1616       F  0.43360995  0.87907032  0.51347186    -0.23000
C1617       C  0.97654834  0.64766211  0.48994701    -0.05800
C1618       C  0.49029774  0.66276440  0.51216025     0.00100
C1619       C  0.50529440  0.63570000  0.00084638    -0.08500
C1620       C  0.50104118  0.60464557  0.00686510    -0.05800
C1621       C  0.48200190  0.59960528  0.51720841     0.00100
C1622       C  0.97181471  0.61626036  0.49291482    -0.08400
C1623       C  0.95504980  0.60015968  0.47243650     0.62000
H1624       H  0.96830903  0.66045047  0.47286856     0.12700
H1625       H  0.51735882  0.58849770  0.99483251     0.12700
C1626       C  0.53346066  0.64603722  0.97890242     0.62200
F1627       F  0.94722687  0.61970875  0.45130084    -0.22900
F1628       F  0.92879550  0.58804464  0.48913346    -0.20200
F1629       F  0.97301474  0.57702446  0.45758806    -0.19900
F1630       F  0.54768102  0.66815764  0.99173265    -0.20000
F1631       F  0.52564591  0.65757760  0.95332672    -0.20300
F1632       F  0.55402303  0.62238515  0.97063151    -0.23000
C1633       C  0.38645429  0.52649425  0.95654692    -0.05800
C1634       C  0.39901160  0.49904944  0.96411123     0.00100
C1635       C  0.39102007  0.97018650  0.47469656    -0.08500
C1636       C  0.36026915  0.97252864  0.47420939    -0.05800
C1637       C  0.33738360  0.50361723  0.96640054     0.00100
C1638       C  0.35551577  0.52951626  0.95760239    -0.08400
C1639       C  0.34291370  0.56074266  0.95160216     0.62000
H1640       H  0.40057579  0.54634404  0.95294835     0.12700
H1641       H  0.34552319  0.95411327  0.48325726     0.12700
C1642       C  0.40358854  0.94186962  0.48732762     0.62200
F1643       F  0.32888699  0.57403259  0.97825048    -0.22900
F1644       F  0.32252654  0.55848701  0.93322776    -0.20200
F1645       F  0.36553289  0.57986208  0.93743092    -0.19900
F1646       F  0.41414894  0.94904818  0.51252188    -0.20000
F1647       F  0.42708582  0.92977830  0.46612773    -0.20300
F1648       F  0.38191534  0.91982001  0.49522673    -0.23000
C1649       C  0.14238289  0.53501063  0.01735594    -0.05800
C1650       C  0.16981069  0.02568908  0.51991609     0.00100
C1651       C  0.15242302  0.00786050  0.54296813    -0.08500
C1652       C  0.12114025  0.00761004  0.54537419    -0.05800
C1653       C  0.10777277  0.02546874  0.52613857     0.00100
C1654       C  0.11095951  0.53433737  0.02144687    -0.08400
C1655       C  0.09384890  0.56057025  0.01035315     0.62000
H1656       H  0.15445664  0.55416737  0.00588408     0.12700
H1657       H  0.10750705  0.99133401  0.56002860     0.12700
C1658       C  0.16667013  0.98895381  0.56439322     0.62200
F1659       F  0.11255328  0.58456387  0.99985870    -0.22900
F1660       F  0.07133626  0.57108096  0.03348538    -0.20200
F1661       F  0.08098530  0.55103047  0.98733423    -0.19900
F1662       F  0.18795942  0.00589084  0.57419457    -0.20000
F1663       F  0.18034660  0.96313195  0.55045740    -0.20300
F1664       F  0.14528844  0.98013844  0.58922217    -0.23000
C1665       C  0.04298935  0.00886152  0.87388652    -0.05800
C1666       C  0.52406335  0.98479558  0.89535652     0.00100
C1667       C  0.50489629  0.96535378  0.88378760    -0.08500
C1668       C  0.50450004  0.96751827  0.85349698    -0.05800
C1669       C  0.52210807  0.98856482  0.83468448     0.00100
C1670       C  0.04189989  0.01127111  0.84350405    -0.08400
C1671       C  0.06387833  0.53425081  0.81972445     0.62000
H1672       H  0.05693993  0.02393367  0.88340140     0.12700
H1673       H  0.48919780  0.95361469  0.84444293     0.12700
C1674       C  0.48391550  0.94319322  0.90329099     0.62200
F1675       F  0.07915095  0.55219888  0.83597410    -0.22900
F1676       F  0.04576927  0.55304952  0.80636196    -0.20200
F1677       F  0.08177071  0.01978120  0.80162859    -0.19900
F1678       F  0.46013551  0.95900195  0.92075535    -0.20000
F1679       F  0.49941447  0.92674440  0.92129713    -0.20300
F1680       F  0.47196768  0.92272620  0.88646436    -0.23000
C1681       C  0.99767996  0.48153819  0.64783798    -0.05800
C1682       C  0.98178484  0.50229129  0.66846870     0.00100
C1683       C  0.45843978  0.01816729  0.66523685    -0.08500
C1684       C  0.45831634  0.52203902  0.62819238    -0.05800
C1685       C  0.97759441  0.50568837  0.60855416     0.00100
C1686       C  0.99568626  0.48255328  0.61792195    -0.08400
C1687       C  0.01291079  0.45902933  0.59649028     0.62000
H1688       H  0.01261487  0.46502430  0.65520101     0.12700
H1689       H  0.44133202  0.03437356  0.62708369     0.12700
C1690       C  0.43823895  0.03929564  0.68703468     0.62200
F1691       F  0.02484301  0.43588074  0.61144456    -0.22900
F1692       F  0.03656956  0.47248166  0.57685934    -0.20200
F1693       F  0.99369924  0.44614738  0.58057160    -0.19900
F1694       F  0.46379259  0.56146305  0.69158368    -0.20000
F1695       F  0.41923074  0.02247269  0.70858771    -0.20300
F1696       F  0.42043562  0.05790304  0.67296460    -0.23000
O1697       O  0.58398194  0.49232518  0.49804052    -0.80900
O1698       O  0.95752725  0.47938207  0.46473614    -0.65600
O1699       O  0.53391350  0.00976249  0.48260151    -1.12200
C1700       C  0.46218418  0.00103854  0.09366433     1.06000
O1701       O  0.92417885  0.02286205  0.00529209    -0.78800
O1702       O  0.94539896  0.05004531  0.04838616    -0.66400
Ni1703     Ni  0.56870942  0.48366803  0.46302288     1.34900
C1704       C  0.97093705  0.06215190  0.03985531     0.84700
O1705       O  0.01057965  0.48933323  0.42806889    -0.79400
O1706       O  0.55799676  0.47322531  0.42574441    -0.89600
C1707       C  0.93644702  0.99945748  0.47432196     0.84300
O1708       O  0.55147322  0.44754377  0.48195423    -0.67800
O1709       O  0.93927954  0.99637945  0.08079168    -0.87100
C1710       C  0.52708486  0.43583399  0.47881151     0.85100
C1711       C  0.03499754  0.47613695  0.41521609     1.06700
H1712       H  0.96871921  0.46886720  0.02548650     0.38500
O1713       O  0.97099485  0.49001359  0.01978427    -1.09800
O1714       O  0.49396515  0.04698495  0.03219162    -0.66400
Ni1715     Ni  0.50395182  0.00496256  0.03580465     1.26300
O1716       O  0.00498001  0.44962012  0.47363623    -0.66700
O1717       O  0.48858854  0.00502065  0.07781440    -0.79000
C1718       C  0.56758894  0.50063731  0.02584223     0.84500
O1719       O  0.54148847  0.01822363  0.04200571    -0.66100
Ni1720     Ni  0.93239613  0.00977411  0.04286904     1.27400
Ni1721     Ni  0.99597697  0.49199444  0.46974244     1.26100
H1722       H  0.53781157  0.02987582  0.47403717     0.39000
O1723       O  0.51355514  0.97783221  0.20551975    -0.74500
O1724       O  0.53944354  0.47058808  0.27027697    -0.74500
O1725       O  0.52439406  0.43013309  0.23219975    -0.74500
O1726       O  0.52756245  0.01839066  0.24400942    -0.74600
O1727       O  0.97369687  0.00485894  0.26594562    -0.74500
O1728       O  0.98046030  0.41740815  0.25965769    -0.74500
O1729       O  0.99437624  0.45710734  0.29882646    -0.74500
O1730       O  0.95960772  0.96051281  0.23089866    -0.74500
Ni1731     Ni  0.53135686  0.97480201  0.23953077     1.25400
Ni1732     Ni  0.97741768  0.46094489  0.26434804     1.25400
C1733       C  0.97801296  0.96112244  0.20559232     0.87700
C1734       C  0.02290739  0.45775250  0.29733760     0.87700
C1735       C  0.00459407  0.40389856  0.24557878     0.87700
C1736       C  0.99638387  0.02005964  0.25208878     0.87900
O1737       O  0.71814866  0.04548729  0.50293828    -0.74500
O1738       O  0.80246244  0.03237560  0.47843380    -0.74500
O1739       O  0.75706101  0.03836771  0.44770860    -0.74500
O1740       O  0.74969960  0.03533237  0.03529660    -0.74600
O1741       O  0.74968707  0.48547498  0.03812658    -0.74500
O1742       O  0.74927425  0.48722788  0.45191902    -0.74500
O1743       O  0.78908696  0.48442268  0.98282475    -0.74500
O1744       O  0.70413710  0.48620974  0.00783852    -0.74500
Ni1745     Ni  0.76050316  0.04039154  0.49038853     1.25400
Ni1746     Ni  0.74664584  0.48362451  0.99535764     1.25400
C1747       C  0.68955980  0.01037476  0.01094126     0.87700
C1748       C  0.81369652  0.00558959  0.47523426     0.87700
C1749       C  0.75418837  0.01315906  0.43436821     0.87700
C1750       C  0.74970862  0.01055724  0.05086905     0.87900
O1751       O  0.49743889  0.20658467  0.48778160    -0.74500
O1752       O  0.50468717  0.29220455  0.47557088    -0.74500
O1753       O  0.54406319  0.24674066  0.48331858    -0.74500
O1754       O  0.95810409  0.25044204  0.47942340    -0.74600
O1755       O  0.93344284  0.25493474  0.03120966    -0.74500
O1756       O  0.52058674  0.25129261  0.03180428    -0.74500
O1757       O  0.97907074  0.29585088  0.02579116    -0.74500
O1758       O  0.97426932  0.21036456  0.04074269    -0.74500
Ni1759     Ni  0.50134446  0.24916785  0.47996828     1.25400
Ni1760     Ni  0.97621803  0.25352085  0.03478099     1.25400
C1761       C  0.49064641  0.19603880  0.51446126     0.87700
C1762       C  0.49991513  0.30962271  0.49825018     0.87700
C1763       C  0.55256527  0.25055191  0.50817778     0.87700
C1764       C  0.93715351  0.25385189  0.50317156     0.87900
O1765       O  0.96327598  0.21511074  0.28571341    -0.74500
O1766       O  0.54658299  0.22149655  0.26985626    -0.74500
O1767       O  0.00850154  0.25478793  0.27344697    -0.74500
O1768       O  0.00263332  0.16701978  0.27376435    -0.74600
O1769       O  0.50028771  0.17952221  0.23497194    -0.74500
O1770       O  0.50271495  0.26690364  0.23169542    -0.74500
O1771       O  0.54439042  0.22101484  0.22172485    -0.74500
O1772       O  0.96083364  0.21662780  0.23750584    -0.74500
Ni1773     Ni  0.00582845  0.21078812  0.27552003     1.25400
Ni1774     Ni  0.50135886  0.22316460  0.23176692     1.25400
C1775       C  0.94855250  0.21929716  0.26522136     0.87700
C1776       C  0.55955975  0.22103074  0.24222592     0.87700
C1777       C  0.00723170  0.27021891  0.24968832     0.87700
C1778       C  0.00106978  0.15340997  0.24950202     0.87900
O1779       O  0.83648412  0.24529167  0.23375913    -0.80900
O1780       O  0.70112290  0.24950910  0.22528767    -0.65600
O1781       O  0.78138050  0.26845262  0.22674713    -1.12200
C1782       C  0.74835679  0.28065782  0.32826427     1.06000
O1783       O  0.67612106  0.26282370  0.27078872    -0.78800
O1784       O  0.71553781  0.31076751  0.26485428    -0.66400
Ni1785     Ni  0.81183400  0.24207690  0.20480152     1.34900
C1786       C  0.74072305  0.32380276  0.26260415     0.84700
O1787       O  0.74828964  0.26364498  0.18445565    -0.79400
O1788       O  0.79039857  0.23567856  0.17307016    -0.89600
C1789       C  0.67752608  0.25094701  0.24553029     0.84300
O1790       O  0.79513743  0.20638201  0.22484817    -0.67800
O1791       O  0.72793992  0.29439679  0.31808964    -0.87100
C1792       C  0.76854647  0.19734745  0.22598877     0.85100
C1793       C  0.76638078  0.24675582  0.16660597     1.06700
H1794       H  0.73370949  0.23305658  0.27497763     0.38500
O1795       O  0.73590415  0.25409955  0.26866128    -1.09800
O1796       O  0.76405644  0.31008314  0.26859353    -0.66400
Ni1797     Ni  0.77528036  0.26712715  0.26901283     1.26300
O1798       O  0.74736080  0.21540100  0.22258009    -0.66700
O1799       O  0.76848412  0.26496355  0.31137045    -0.79000
C1800       C  0.83678040  0.26150211  0.25644200     0.84500
O1801       O  0.81512487  0.27867733  0.26849538    -0.66100
Ni1802     Ni  0.70429130  0.27809924  0.29206222     1.27400
Ni1803     Ni  0.74123431  0.25882340  0.22614649     1.26100
H1804       H  0.78540878  0.28886149  0.21919105     0.39000
O1805       O  0.75374950  0.24252083  0.45666035    -0.74500
O1806       O  0.73224299  0.21703309  0.03755533    -0.74500
O1807       O  0.69303119  0.22876174  0.99936875    -0.74500
O1808       O  0.78049460  0.23376192  0.99528983    -0.74600
O1809       O  0.78596104  0.28001400  0.50970653    -0.74500
O1810       O  0.69835065  0.27496407  0.51367999    -0.74500
O1811       O  0.72496059  0.26494934  0.05310023    -0.74500
O1812       O  0.74763059  0.29085803  0.47114130    -0.74500
Ni1813     Ni  0.73701960  0.22962030  0.99687844     1.25400
Ni1814     Ni  0.74193920  0.27925162  0.51209444     1.25400
C1815       C  0.75203169  0.27081467  0.45076189     0.87700
C1816       C  0.72894111  0.23678559  0.05818594     0.87700
C1817       C  0.67514940  0.25184704  0.00699897     0.87700
C1818       C  0.80375676  0.25682445  0.50218416     0.87900
O1819       O  0.72790059  0.05598219  0.24686270    -0.74500
O1820       O  0.72205990  0.46983684  0.25218081    -0.74500
O1821       O  0.72536634  0.51464998  0.29280884    -0.74500
O1822       O  0.72526723  0.01167241  0.20527178    -0.74600
O1823       O  0.77529005  0.01015696  0.19408256    -0.74500
O1824       O  0.77511385  0.50849612  0.28295215    -0.74500
O1825       O  0.77229118  0.46528079  0.24097938    -0.74500
O1826       O  0.77813830  0.05243713  0.23711745    -0.74500
Ni1827     Ni  0.72385824  0.51327045  0.24977922     1.25400
Ni1828     Ni  0.77763505  0.00940009  0.23722324     1.25400
C1829       C  0.75384731  0.06841518  0.24201944     0.87700
C1830       C  0.74621624  0.45344582  0.24803613     0.87700
C1831       C  0.75008864  0.51204587  0.30262481     0.87700
C1832       C  0.75001928  0.01080470  0.18499557     0.87900
C1833       C  0.73935487  0.11727995  0.22253966    -0.05800
C1834       C  0.75601204  0.10166384  0.24061276     0.00100
C1835       C  0.77557388  0.11770540  0.25503453    -0.08500
C1836       C  0.77794426  0.14915381  0.25038489    -0.05800
C1837       C  0.76226913  0.16472313  0.23129206     0.00100
C1838       C  0.74266670  0.14854900  0.21684520    -0.08400
C1839       C  0.72705775  0.16328649  0.19382491     0.62000
H1840       H  0.72479241  0.10433985  0.21164112     0.12700
H1841       H  0.79274718  0.16185419  0.26120086     0.12700
C1842       C  0.79384686  0.10200591  0.27532172     0.62200
F1843       F  0.71225266  0.14228962  0.18016997    -0.22900
F1844       F  0.74830553  0.17708235  0.17179397    -0.20200
F1845       F  0.70580850  0.18455453  0.20716854    -0.19900
F1846       F  0.81613525  0.08365171  0.25870180    -0.20000
F1847       F  0.77515668  0.08458356  0.29654103    -0.20300
F1848       F  0.80782538  0.12265094  0.29019626    -0.23000
C1849       C  0.75626623  0.37366555  0.27571879    -0.05800
C1850       C  0.74204205  0.35680620  0.25711904     0.00100
C1851       C  0.72828810  0.37191696  0.23576734    -0.08500
C1852       C  0.72984169  0.40376269  0.23358205    -0.05800
C1853       C  0.74431890  0.42040484  0.25211085     0.00100
C1854       C  0.75711166  0.40536259  0.27404949    -0.08400
C1855       C  0.76982979  0.42276857  0.29686236     0.62000
H1856       H  0.76588026  0.36175998  0.29243949     0.12700
H1857       H  0.71987990  0.41594983  0.21730810     0.12700
C1858       C  0.71284582  0.35466779  0.21490107     0.62200
F1859       F  0.77855718  0.40369455  0.31788363    -0.22900
F1860       F  0.74789779  0.44261418  0.31178781    -0.20200
F1861       F  0.79484771  0.43886264  0.28290175    -0.19900
F1862       F  0.68682635  0.34152013  0.23090206    -0.20000
F1863       F  0.73219099  0.33230674  0.20043269    -0.20300
F1864       F  0.70474754  0.37355014  0.19339564    -0.23000
C1865       C  0.72587227  0.23930149  0.13943339    -0.05800
C1866       C  0.75713552  0.23787000  0.13892196     0.00100
C1867       C  0.77753960  0.22786662  0.11268165    -0.08500
C1868       C  0.76597296  0.22307304  0.08708758    -0.05800
C1869       C  0.73544158  0.22866738  0.08700523     0.00100
C1870       C  0.71471222  0.23515384  0.11365578    -0.08400
C1871       C  0.68115770  0.23835814  0.11447177     0.62000
H1872       H  0.71010800  0.24499231  0.15997822     0.12700
H1873       H  0.78121897  0.21782730  0.06606958     0.12700
C1874       C  0.81131566  0.22376969  0.11079666     0.62200
F1875       F  0.66440717  0.23948715  0.14345741    -0.22900
F1876       F  0.67177338  0.21369089  0.10069834    -0.20200
F1877       F  0.67531810  0.26465299  0.09972933    -0.19900
F1878       F  0.81644523  0.20057597  0.12984687    -0.20000
F1879       F  0.82320286  0.25044058  0.11848256    -0.20300
F1880       F  0.82671109  0.21625113  0.08228205    -0.23000
C1881       C  0.77718192  0.28254355  0.36817720    -0.05800
C1882       C  0.74890733  0.28340042  0.36007617     0.00100
C1883       C  0.72187116  0.28432964  0.38257064    -0.08500
C1884       C  0.72435226  0.28295225  0.41243104    -0.05800
C1885       C  0.75240822  0.27975292  0.42013425     0.00100
C1886       C  0.77933007  0.28054360  0.39820593    -0.08400
C1887       C  0.80986239  0.27877136  0.40679550     0.62000
H1888       H  0.79755692  0.28233786  0.35079101     0.12700
H1889       H  0.70425640  0.28264644  0.43015305     0.12700
C1890       C  0.69047234  0.28482867  0.37554672     0.62200
F1891       F  0.83334809  0.28278362  0.38231813    -0.22900
F1892       F  0.81370590  0.25073434  0.41954222    -0.20200
F1893       F  0.81140212  0.30119938  0.42722408    -0.19900
F1894       F  0.68777736  0.26086004  0.35715222    -0.20000
F1895       F  0.68554877  0.31197937  0.36169598    -0.20300
F1896       F  0.66790831  0.28215256  0.40105718    -0.23000
C1897       C  0.63797238  0.25000501  0.21673193    -0.05800
C1898       C  0.65032315  0.23769475  0.23983931     0.00100
C1899       C  0.63582955  0.21401504  0.25814531    -0.08500
C1900       C  0.60706249  0.20604732  0.25503659    -0.05800
C1901       C  0.59255258  0.22172409  0.23508962     0.00100
C1902       C  0.60873877  0.24256968  0.21411401    -0.08400
C1903       C  0.59466661  0.25857540  0.19075024     0.62000
H1904       H  0.65043297  0.26722775  0.20235649     0.12700
H1905       H  0.59452683  0.18939457  0.27011965     0.12700
C1906       C  0.65018533  0.19788019  0.28139002     0.62200
F1907       F  0.61491267  0.27736698  0.17241341    -0.22900
F1908       F  0.57023754  0.27621853  0.20455444    -0.20200
F1909       F  0.58527376  0.23730118  0.17293649    -0.19900
F1910       F  0.65222716  0.21755008  0.30407440    -0.20000
F1911       F  0.67880487  0.18731646  0.26820611    -0.20300
F1912       F  0.63345155  0.17328552  0.29411510    -0.23000
C1913       C  0.91564915  0.26276212  0.26443300    -0.05800
C1914       C  0.91840157  0.23231561  0.27283791     0.00100
C1915       C  0.89275173  0.21510495  0.28459738    -0.08500
C1916       C  0.86453561  0.22788031  0.28327717    -0.05800
C1917       C  0.86230354  0.25672940  0.27039818     0.00100
C1918       C  0.88752470  0.27554850  0.26330273    -0.08400
C1919       C  0.88519024  0.30762978  0.25164630     0.62000
H1920       H  0.93593361  0.27563690  0.25625054     0.12700
H1921       H  0.84445148  0.21423915  0.28915353     0.12700
C1922       C  0.89545838  0.18303402  0.29626726     0.62200
F1923       F  0.91145475  0.32343529  0.25099085    -0.22900
F1924       F  0.86163129  0.32308066  0.26998093    -0.20200
F1925       F  0.87997018  0.30689430  0.22303215    -0.19900
F1926       F  0.91096432  0.18326174  0.31919014    -0.20000
F1927       F  0.91099850  0.16476050  0.27358728    -0.20300
F1928       F  0.86739484  0.17059380  0.30722621    -0.23000
C1929       C  0.87103069  0.27233905  0.02424821    -0.05800
C1930       C  0.90316599  0.25499635  0.50162500     0.00100
C1931       C  0.89051451  0.23875701  0.48043450    -0.08500
C1932       C  0.85858364  0.23990054  0.48175186    -0.05800
C1933       C  0.83798689  0.25786592  0.50226439     0.00100
C1934       C  0.83937103  0.27551046  0.02416632    -0.08400
C1935       C  0.82006769  0.29733198  0.04590903     0.62000
H1936       H  0.88044824  0.28545283  0.03974243     0.12700
H1937       H  0.84937958  0.22695623  0.46598854     0.12700
C1938       C  0.91043937  0.21979059  0.45636464     0.62200
F1939       F  0.83620033  0.31011278  0.06496470    -0.22900
F1940       F  0.79597195  0.28224698  0.06321427    -0.20200
F1941       F  0.80937397  0.32065355  0.03026204    -0.19900
F1942       F  0.89377683  0.20378721  0.43988248    -0.20000
F1943       F  0.92715565  0.19905139  0.46924016    -0.20300
F1944       F  0.92966324  0.23845323  0.43686642    -0.23000
C1945       C  0.59718871  0.23474233  0.98573612    -0.05800
C1946       C  0.57552762  0.24905612  0.00850747     0.00100
C1947       C  0.59970945  0.26822221  0.52873268    -0.08500
C1948       C  0.63174989  0.26740119  0.52713376    -0.05800
C1949       C  0.64097621  0.25033553  0.00667295     0.00100
C1950       C  0.62919365  0.23535742  0.98416632    -0.08400
C1951       C  0.65039307  0.22124451  0.95744157     0.62000
H1952       H  0.58877871  0.22285683  0.96875902     0.12700
H1953       H  0.64103662  0.28111294  0.54228362     0.12700
C1954       C  0.57990844  0.28888372  0.55133473     0.62200
F1955       F  0.63512079  0.21193317  0.93607864    -0.22900
F1956       F  0.66510749  0.19617231  0.96644569    -0.20200
F1957       F  0.67144159  0.24227479  0.94413567    -0.19900
F1958       F  0.56103289  0.27157540  0.57255980    -0.20000
F1959       F  0.56278372  0.30804515  0.53708395    -0.20300
F1960       F  0.59678297  0.30674502  0.56603496    -0.23000
C1961       C  0.77366938  0.99613701  0.34723603    -0.05800
C1962       C  0.74984971  0.51267341  0.33708309     0.00100
C1963       C  0.72945132  0.53080935  0.35862119    -0.08500
C1964       C  0.73090917  0.53011811  0.38986577    -0.05800
C1965       C  0.75153304  0.51159140  0.40179658     0.00100
C1966       C  0.77504768  0.99543189  0.37848326    -0.08400
C1967       C  0.79997161  0.97704204  0.38827155     0.62000
H1968       H  0.79015670  0.98317298  0.33147355     0.12700
H1969       H  0.71527525  0.54400134  0.40556381     0.12700
C1970       C  0.70633009  0.55170554  0.34871020     0.62200
F1971       F  0.81956781  0.96371447  0.36435555    -0.22900
F1972       F  0.78757637  0.95421905  0.40776944    -0.20200
F1973       F  0.81656852  0.99572255  0.40241252    -0.19900
F1974       F  0.68476328  0.53465596  0.33952500    -0.20000
F1975       F  0.72036820  0.57008097  0.32538963    -0.20300
F1976       F  0.69170153  0.57038082  0.37152709    -0.23000
C1977       C  0.72988742  0.49529197  0.10726712    -0.05800
C1978       C  0.75057332  0.01118474  0.08517051     0.00100
C1979       C  0.76932418  0.03057408  0.09819267    -0.08500
C1980       C  0.76910665  0.02915958  0.12986105    -0.05800
C1981       C  0.74944718  0.01058131  0.15066196     0.00100
C1982       C  0.72833372  0.49475927  0.13907009    -0.08400
C1983       C  0.70277782  0.47781162  0.15904625     0.62000
H1984       H  0.71273870  0.48404290  0.09860074     0.12700
H1985       H  0.78398490  0.04356351  0.13886207     0.12700
C1986       C  0.79008609  0.05271957  0.07858265     0.62200
F1987       F  0.68556291  0.46227511  0.14276922    -0.22900
F1988       F  0.68384935  0.49809198  0.17718634    -0.20200
F1989       F  0.71446785  0.45687487  0.17649754    -0.19900
F1990       F  0.77306901  0.07421282  0.06687269    -0.20000
F1991       F  0.80886094  0.03731644  0.05553658    -0.20300
F1992       F  0.80802201  0.06788600  0.09436956    -0.23000
C1993       C  0.51515093  0.33042728  0.22586896    -0.05800
C1994       C  0.00699807  0.30459740  0.24959947     0.00100
C1995       C  0.99470300  0.32239713  0.27522167    -0.08500
C1996       C  0.99427286  0.35445486  0.27253297    -0.05800
C1997       C  0.00602379  0.36973757  0.24556071     0.00100
C1998       C  0.51527213  0.36239617  0.22201988    -0.08400
C1999       C  0.52835522  0.37605744  0.19151392     0.62000
H2000       H  0.52469166  0.31617904  0.20704620     0.12700
H2001       H  0.98514463  0.36810570  0.29194525     0.12700
C2002       C  0.98159897  0.30802967  0.30541366     0.62200
F2003       F  0.53593232  0.35402775  0.16980844    -0.22900
F2004       F  0.55425691  0.39168475  0.19254435    -0.20200
F2005       F  0.00921775  0.38749290  0.18291424    -0.19900
F2006       F  0.49888141  0.30855396  0.32125705    -0.20000
F2007       F  0.96006508  0.28710135  0.30266290    -0.20300
F2008       F  0.96778510  0.32933270  0.32606710    -0.23000
C2009       C  0.48281392  0.11528138  0.28168894    -0.05800
C2010       C  0.99935829  0.11930247  0.24915493     0.00100
C2011       C  0.01453232  0.10132217  0.22474196    -0.08500
C2012       C  0.01257950  0.06934316  0.22684405    -0.05400
C2013       C  0.99559537  0.05433469  0.25198277     0.00100
C2014       C  0.48195282  0.08309276  0.28277275    -0.08400
C2015       C  0.45942844  0.06789275  0.30773048     0.62000
H2016       H  0.46725858  0.12853741  0.29809329     0.12700
H2017       H  0.02424434  0.05561665  0.20838398     0.12700
C2018       C  0.03337357  0.11550561  0.19664035     0.62200
F2019       F  0.44403753  0.08870246  0.32809541    -0.22900
F2020       F  0.47438216  0.04759550  0.32307912    -0.20200
F2021       F  0.93620842  0.04394072  0.29693749    -0.19900
F2022       F  0.56317800  0.14997888  0.22690076    -0.20000
F2023       F  0.01475393  0.13152167  0.18137969    -0.20300
F2024       F  0.04909417  0.09384807  0.17748548    -0.23000
C2025       C  0.53590934  0.34996361  0.48126770    -0.05800
C2026       C  0.50612760  0.34196689  0.49384846     0.00100
C2027       C  0.96942868  0.36020219  0.00065250    -0.08500
C2028       C  0.97714324  0.39073217  0.99508514    -0.05800
C2029       C  0.52164838  0.40330235  0.48524611     0.00100
C2030       C  0.54432592  0.38043585  0.47693662    -0.08400
C2031       C  0.57699501  0.38775773  0.46300395     0.62000
H2032       H  0.55265980  0.33194471  0.47523029     0.12700
H2033       H  0.95975476  0.40818113  0.00075807     0.12700
C2034       C  0.93701022  0.35173413  0.01408491     0.62200
F2035       F  0.59424161  0.36180859  0.45436560    -0.22900
F2036       F  0.58982479  0.40265158  0.48344708    -0.20200
F2037       F  0.57831672  0.40589242  0.43791801    -0.19900
F2038       F  0.93527636  0.33919815  0.04220286    -0.20000
F2039       F  0.92725285  0.33083769  0.99612371    -0.20300
F2040       F  0.91761411  0.37671864  0.01681894    -0.23000
C2041       C  0.46053337  0.14815924  0.04724913    -0.05800
C2042       C  0.97874472  0.15876588  0.02456636     0.00100
C2043       C  0.00659305  0.14468093  0.53427629    -0.08500
C2044       C  0.00337340  0.11307417  0.53635094    -0.05800
C2045       C  0.97316383  0.09568250  0.03673278     0.00100
C2046       C  0.45723456  0.11708635  0.05436365    -0.08400
C2047       C  0.43917216  0.10723951  0.08471242     0.62000
H2048       H  0.44923868  0.16474284  0.06322177     0.12700
H2049       H  0.01735603  0.09952199  0.54819178     0.12700
C2050       C  0.02975971  0.15989278  0.54848407     0.62200
F2051       F  0.43019177  0.13170489  0.10334933    -0.22900
F2052       F  0.45664907  0.08794446  0.09840142    -0.20200
F2053       F  0.41349953  0.09241623  0.08142303    -0.19900
F2054       F  0.01524617  0.17887327  0.57102390    -0.20000
F2055       F  0.04916975  0.17668833  0.52720556    -0.20300
F2056       F  0.04691325  0.13893151  0.56077442    -0.23000
C2057       C  0.89711173  0.02174580  0.45224328    -0.05800
C2058       C  0.90865874  0.99580344  0.46391449     0.00100
C2059       C  0.88063780  0.47562271  0.96988084    -0.08500
C2060       C  0.85024499  0.47876573  0.96870316    -0.05800
C2061       C  0.84676040  0.00145012  0.46614447     0.00100
C2062       C  0.86622408  0.02525981  0.45312662    -0.08400
C2063       C  0.85502444  0.05537403  0.44246643     0.62000
H2064       H  0.91210103  0.04059356  0.44530464     0.12700
H2065       H  0.83645057  0.45874832  0.97178108     0.12700
C2066       C  0.89344189  0.44462943  0.97630229     0.62200
F2067       F  0.84274464  0.07325074  0.46678142    -0.22900
F2068       F  0.83361112  0.05056830  0.42563564    -0.20200
F2069       F  0.87829690  0.07132819  0.42469656    -0.19900
F2070       F  0.90277607  0.44516060  0.00313377    -0.20000
F2071       F  0.91772737  0.43710428  0.95363248    -0.20300
F2072       F  0.87233993  0.42199366  0.97824012    -0.23000
C2073       C  0.65426668  0.04890464  0.50565716    -0.05800
C2074       C  0.65759488  0.51181409  0.02645868     0.00100
C2075       C  0.64254506  0.48630030  0.04167726    -0.08500
C2076       C  0.61124399  0.48516094  0.04521478    -0.05800
C2077       C  0.59514292  0.50877382  0.03481256     0.00100
C2078       C  0.62284580  0.04909521  0.50955885    -0.08400
C2079       C  0.60721268  0.07037069  0.49105792     0.62000
H2080       H  0.66761961  0.06334780  0.48875212     0.12700
H2081       H  0.59954051  0.46448031  0.05333388     0.12700
C2082       C  0.65885543  0.45917714  0.05219931     0.62200
F2083       F  0.62709432  0.09084053  0.47463048    -0.22900
F2084       F  0.58458463  0.08665604  0.50976486    -0.20200
F2085       F  0.59468927  0.05390871  0.47140405    -0.19900
F2086       F  0.68255586  0.46865415  0.06415565    -0.20000
F2087       F  0.66963466  0.43999403  0.02853770    -0.20300
F2088       F  0.63971954  0.44289784  0.07423182    -0.23000
C2089       C  0.55424764  0.49215573  0.36011168    -0.05800
C2090       C  0.03745498  0.46668109  0.38448567     0.00100
C2091       C  0.02096769  0.44191069  0.37753702    -0.08500
C2092       C  0.01920283  0.43791746  0.34779593    -0.05800
C2093       C  0.03347939  0.45778086  0.32535223     0.00100
C2094       C  0.55123493  0.49030549  0.33036262    -0.08400
C2095       C  0.57262691  0.01540129  0.31278338     0.62000
H2096       H  0.56706336  0.51022849  0.36697068     0.12700
H2097       H  0.00515100  0.42031000  0.34202942     0.12700
C2098       C  0.00484377  0.42025159  0.40142461     0.62200
F2099       F  0.58861106  0.03634999  0.32517790    -0.22900
F2100       F  0.55181497  0.03110853  0.29995302    -0.20200
F2101       F  0.58638179  0.49829228  0.28467541    -0.19900
F2102       F  0.98211136  0.43550815  0.42088556    -0.20000
F2103       F  0.02524092  0.40801692  0.41702733    -0.20300
F2104       F  0.99200099  0.39651408  0.38934724    -0.23000
C2105       C  0.46875770  0.95976447  0.16388726    -0.05800
C2106       C  0.47307377  0.98439874  0.18131034     0.00100
C2107       C  0.97188590  0.50742394  0.16564207    -0.08500
C2108       C  0.94215883  0.99314217  0.14471645    -0.05800
C2109       C  0.46037273  0.99462125  0.12513471     0.00100
C2110       C  0.46273874  0.96445467  0.13540316    -0.08400
C2111       C  0.46030940  0.93762378  0.11567570     0.62000
H2112       H  0.47181712  0.93697792  0.17206880     0.12700
H2113       H  0.96807504  0.53629923  0.12812748     0.12700
C2114       C  0.97846986  0.53341133  0.18450276     0.62200
F2115       F  0.46338444  0.91019948  0.12993470    -0.22900
F2116       F  0.48269526  0.93885091  0.08993844    -0.20200
F2117       F  0.43237263  0.93848376  0.10802953    -0.19900
F2118       F  0.93727540  0.01532064  0.21699307    -0.20000
F2119       F  0.95890438  0.53262043  0.21211993    -0.20300
F2120       F  0.97496197  0.56138609  0.17141518    -0.23000
O2121       O  0.56920462  0.47889644  0.00766429    -0.80900
O2122       O  0.94667148  0.48483130  0.97001287    -0.65600
O2123       O  0.51801988  0.00420362  0.99346842    -1.12200
C2124       C  0.47734063  0.00613274  0.58241318     1.06000
O2125       O  0.93665910  0.01946794  0.49384066    -0.78800
O2126       O  0.95729634  0.05162378  0.53382782    -0.66400
Ni2127     Ni  0.55767291  0.47967856  0.96971411     1.34900
C2128       C  0.98206693  0.06500125  0.52482481     0.84700
O2129       O  0.00016147  0.49632146  0.93593324    -0.79400
O2130       O  0.54927373  0.47845070  0.92998045    -0.89600
C2131       C  0.92317069  0.00412574  0.98474403     0.84300
O2132       O  0.53970631  0.44165450  0.98034566    -0.67800
O2133       O  0.95480955  0.00158016  0.57002172    -0.87100
C2134       C  0.51429147  0.43196784  0.97811408     0.85100
C2135       C  0.02580207  0.48820960  0.92054774     1.06700
H2136       H  0.98248301  0.47398026  0.52040670     0.38500
O2137       O  0.98328459  0.49422307  0.51195347    -1.09800
O2138       O  0.50605910  0.05272894  0.51920146    -0.66400
Ni2139     Ni  0.51871974  0.01197143  0.52451225     1.26300
O2140       O  0.99155069  0.45006835  0.97621705    -0.66700
O2141       O  0.50285063  0.01316080  0.56636519    -0.79000
C2142       C  0.57945194  0.51454928  0.51596795     0.84500
O2143       O  0.55447500  0.02929058  0.53073613    -0.66100
Ni2144     Ni  0.94653681  0.01022589  0.53151743     1.27400
Ni2145     Ni  0.98483756  0.49327160  0.97760772     1.26100
H2146       H  0.52159550  0.02464848  0.98582316     0.39000
O2147       O  0.51506099  0.99856775  0.70568093    -0.74500
O2148       O  0.53940432  0.49391538  0.77285454    -0.74500
O2149       O  0.52831677  0.45242882  0.73318252    -0.74500
O2150       O  0.52471921  0.04011675  0.74534676    -0.74600
O2151       O  0.97621886  0.04160177  0.76385810    -0.74500
O2152       O  0.98028134  0.45403197  0.75738651    -0.74500
O2153       O  0.99048305  0.49516755  0.79707935    -0.74500
O2154       O  0.96704490  0.99925096  0.72437711    -0.74500
Ni2155     Ni  0.52736703  0.99633834  0.74277349     1.25400
Ni2156     Ni  0.97749930  0.49777864  0.76024109     1.25400
C2157       C  0.98848250  0.99952467  0.70119904     0.87700
C2158       C  0.01843485  0.49490897  0.79843788     0.87700
C2159       C  0.00501640  0.43995676  0.74585576     0.87700
C2160       C  0.00032827  0.05644163  0.75360460     0.87900
O2161       O  0.70340548  0.03549454  0.00559602    -0.74500
O2162       O  0.78873402  0.03380116  0.98017290    -0.74500
O2163       O  0.74300331  0.03390538  0.95001446    -0.74500
O2164       O  0.76333624  0.03858199  0.53316798    -0.74600
O2165       O  0.75498305  0.48749414  0.53736503    -0.74500
O2166       O  0.74385841  0.48520794  0.95257484    -0.74500
O2167       O  0.79455744  0.48076505  0.48238722    -0.74500
O2168       O  0.70971904  0.49399568  0.50725890    -0.74500
Ni2169     Ni  0.74614246  0.03638857  0.99266268     1.25400
Ni2170     Ni  0.75186742  0.48563769  0.49476878     1.25400
C2171       C  0.70122669  0.02256061  0.50945030     0.87700
C2172       C  0.80279412  0.00831756  0.97696138     0.87700
C2173       C  0.74371884  0.00851326  0.93592071     0.87700
C2174       C  0.76021898  0.01389235  0.54915378     0.87900
O2175       O  0.48663681  0.20260186  0.98799538    -0.74500
O2176       O  0.49281028  0.28796373  0.97496397    -0.74500
O2177       O  0.53284448  0.24349552  0.98306190    -0.74500
O2178       O  0.94610681  0.24657476  0.98256045    -0.74600
O2179       O  0.94522276  0.25645091  0.52843955    -0.74500
O2180       O  0.53188117  0.25455213  0.53209861    -0.74500
O2181       O  0.99070992  0.29732466  0.52524572    -0.74500
O2182       O  0.98605474  0.21176104  0.53639270    -0.74500
Ni2183     Ni  0.49005612  0.24511035  0.97982322     1.25400
Ni2184     Ni  0.98791151  0.25483089  0.53226986     1.25400
C2185       C  0.47998199  0.19184097  0.01455169     0.87700
C2186       C  0.48787006  0.30558771  0.99743741     0.87700
C2187       C  0.54131960  0.24781234  0.00786156     0.87700
C2188       C  0.92525376  0.25139141  0.00612746     0.87900
O2189       O  0.96336315  0.24999324  0.79224983    -0.74500
O2190       O  0.54714313  0.24261931  0.75735616    -0.74500
O2191       O  0.00752918  0.29101570  0.77421712    -0.74500
O2192       O  0.00328030  0.20338477  0.77516078    -0.74600
O2193       O  0.49511056  0.20207524  0.72990520    -0.74500
O2194       O  0.49744192  0.28989288  0.72771931    -0.74500
O2195       O  0.53820038  0.24373038  0.71127204    -0.74500
O2196       O  0.95414837  0.25094598  0.74624068    -0.74500
Ni2197     Ni  0.00564197  0.24713808  0.77642859     1.25400
Ni2198     Ni  0.49578693  0.24595264  0.72714690     1.25400
C2199       C  0.94506668  0.25137660  0.77463963     0.87700
C2200       C  0.55640670  0.24205403  0.72899841     0.87700
C2201       C  0.00323671  0.30650916  0.75149858     0.87700
C2202       C  0.99919620  0.18958057  0.75186955     0.87900
O2203       O  0.82876902  0.24333595  0.74626369    -0.80900
O2204       O  0.69870166  0.25283449  0.71990666    -0.65600
O2205       O  0.77599128  0.26739238  0.73353919    -1.12200
C2206       C  0.73187706  0.28047578  0.83207291     1.06000
O2207       O  0.66862257  0.27155280  0.76100673    -0.78800
O2208       O  0.71096358  0.31449560  0.76446078    -0.66400
Ni2209     Ni  0.80713617  0.23987099  0.71471396     1.34900
C2210       C  0.73684858  0.32458680  0.76529467     0.84700
O2211       O  0.75028864  0.26534843  0.68569362    -0.79400
O2212       O  0.78961327  0.23365577  0.68011464    -0.89600
C2213       C  0.67308613  0.25892440  0.73566488     0.84300
O2214       O  0.78697821  0.20552195  0.73435861    -0.67800
O2215       O  0.71206401  0.29401175  0.82062276    -0.87100
C2216       C  0.76120598  0.19734216  0.73120321     0.85100
C2217       C  0.76843184  0.24684219  0.67017663     1.06700
H2218       H  0.72023250  0.23453903  0.77523129     0.38500
O2219       O  0.72501210  0.25534974  0.76932082    -1.09800
O2220       O  0.75658523  0.30856913  0.77516608    -0.66400
Ni2221     Ni  0.76360555  0.26481777  0.77566588     1.26300
O2222       O  0.74201021  0.21602343  0.72412974    -0.66700
O2223       O  0.75040205  0.26175077  0.81725944    -0.79000
C2224       C  0.82619330  0.25894391  0.76986947     0.84500
O2225       O  0.80242266  0.27335077  0.78178962    -0.66100
Ni2226     Ni  0.69296558  0.28182876  0.78876306     1.27400
Ni2227     Ni  0.73715876  0.25997337  0.72694962     1.26100
H2228       H  0.78186175  0.28773229  0.72698379     0.39000
O2229       O  0.74204541  0.24558552  0.95749921    -0.74500
O2230       O  0.74404700  0.21620062  0.53730421    -0.74500
O2231       O  0.70456605  0.22700962  0.49930105    -0.74500
O2232       O  0.79230784  0.23227784  0.49459878    -0.74600
O2233       O  0.77426189  0.28108192  0.01156792    -0.74500
O2234       O  0.68646050  0.27633911  0.01494904    -0.74500
O2235       O  0.73689926  0.26447352  0.55184345    -0.74500
O2236       O  0.73580601  0.29347590  0.97325572    -0.74500
Ni2237     Ni  0.74874923  0.22781233  0.49645488     1.25400
Ni2238     Ni  0.73007759  0.28062742  0.01376896     1.25400
C2239       C  0.74035956  0.27406558  0.95233278     0.87700
C2240       C  0.74058031  0.23636310  0.55751863     0.87700
C2241       C  0.68676832  0.25027854  0.50659085     0.87700
C2242       C  0.79202530  0.25788971  0.00359444     0.87900
O2243       O  0.72374032  0.05399224  0.74608492    -0.74500
O2244       O  0.72577627  0.46717694  0.74898772    -0.74500
O2245       O  0.72212247  0.51118880  0.79172448    -0.74500
O2246       O  0.72808799  0.01043254  0.70265575    -0.74600
O2247       O  0.77801233  0.01171487  0.69506669    -0.74500
O2248       O  0.77194977  0.51046237  0.78453301    -0.74500
O2249       O  0.77603404  0.46722334  0.74104800    -0.74500
O2250       O  0.77396627  0.05434217  0.73933335    -0.74500
Ni2251     Ni  0.72321255  0.51054950  0.74813212     1.25400
Ni2252     Ni  0.77692963  0.01100936  0.73888849     1.25400
C2253       C  0.74847389  0.06836716  0.74281885     0.87700
C2254       C  0.75115826  0.45296684  0.74594980     0.87700
C2255       C  0.74595122  0.51086574  0.80310930     0.87700
C2256       C  0.75393746  0.01111056  0.68402719     0.87900
C2257       C  0.74330816  0.11601968  0.71591385    -0.05800
C2258       C  0.74792501  0.10166205  0.74201566     0.00100
C2259       C  0.75414541  0.11897309  0.76562955    -0.08500
C2260       C  0.75736547  0.15048530  0.76155834    -0.05800
C2261       C  0.75397758  0.16486239  0.73493421     0.00100
C2262       C  0.74639490  0.14754335  0.71176692    -0.08400
C2263       C  0.74371964  0.16172131  0.68203061     0.62000
H2264       H  0.73854270  0.10204928  0.69826118     0.12700
H2265       H  0.76290825  0.16417318  0.77903413     0.12700
C2266       C  0.75664939  0.10415965  0.79510316     0.62200
F2267       F  0.73759987  0.14039441  0.66232552    -0.22900
F2268       F  0.77062562  0.17523290  0.66901306    -0.20200
F2269       F  0.72058946  0.18318377  0.68620578    -0.19900
F2270       F  0.78015814  0.08307845  0.79071122    -0.20000
F2271       F  0.72995406  0.08972745  0.80721361    -0.20300
F2272       F  0.76186626  0.12519133  0.81550426    -0.23000
C2273       C  0.76078879  0.37263568  0.77345428    -0.05800
C2274       C  0.74340055  0.35666168  0.75701528     0.00100
C2275       C  0.73159520  0.37200731  0.73446796    -0.08500
C2276       C  0.73521595  0.40349661  0.73121882    -0.05800
C2277       C  0.75135401  0.41964324  0.74859815     0.00100
C2278       C  0.76500975  0.40404615  0.76967498    -0.08400
C2279       C  0.78226417  0.42066469  0.78942847     0.62000
H2280       H  0.76999457  0.36051472  0.79031189     0.12700
H2281       H  0.72471484  0.41590495  0.71548599     0.12700
C2282       C  0.71529053  0.35556861  0.71377856     0.62200
F2283       F  0.79175175  0.40136315  0.80983745    -0.22900
F2284       F  0.76389133  0.44294587  0.80523363    -0.20200
F2285       F  0.80760962  0.43379841  0.77209411    -0.19900
F2286       F  0.68630771  0.34877159  0.72875473    -0.20000
F2287       F  0.73080981  0.32907156  0.70366725    -0.20300
F2288       F  0.71325293  0.37316635  0.68899479    -0.23000
C2289       C  0.73125150  0.23796702  0.63960462    -0.05800
C2290       C  0.76193515  0.23824436  0.64135245     0.00100
C2291       C  0.78459292  0.23084553  0.61598213    -0.08500
C2292       C  0.77554366  0.22518219  0.58917912    -0.05800
C2293       C  0.74520585  0.22839124  0.58701762     0.00100
C2294       C  0.72246766  0.23336105  0.61267399    -0.08400
C2295       C  0.68896456  0.23464757  0.61263542     0.62000
H2296       H  0.71380009  0.24232186  0.65936240     0.12700
H2297       H  0.79245156  0.22131500  0.56890539     0.12700
C2298       C  0.81803949  0.23139463  0.61639992     0.62200
F2299       F  0.67424247  0.21339370  0.63278085    -0.22900
F2300       F  0.68296463  0.22849693  0.58498232    -0.20200
F2301       F  0.67737284  0.26319056  0.62130161    -0.19900
F2302       F  0.82513446  0.20824232  0.63451994    -0.20000
F2303       F  0.82497739  0.25902968  0.62701400    -0.20300
F2304       F  0.83604737  0.22753386  0.58820046    -0.23000
C2305       C  0.76318929  0.27991917  0.86954182    -0.05800
C2306       C  0.73492422  0.28698075  0.86274355     0.00100
C2307       C  0.71062480  0.29714246  0.88572234    -0.08500
C2308       C  0.71456522  0.29560589  0.91523670    -0.05800
C2309       C  0.74141028  0.28407298  0.92185826     0.00100
C2310       C  0.76673857  0.27784714  0.89897708    -0.08400
C2311       C  0.79701672  0.26830494  0.90573529     0.62000
H2312       H  0.78218053  0.27407682  0.85168371     0.12700
H2313       H  0.69588630  0.30099980  0.93359030     0.12700
C2314       C  0.68036814  0.30805073  0.87978209     0.62200
F2315       F  0.81965819  0.26744791  0.88013275    -0.22900
F2316       F  0.79512543  0.23971542  0.91871452    -0.20200
F2317       F  0.80513222  0.28878043  0.92511597    -0.19900
F2318       F  0.66707735  0.28502061  0.86721624    -0.20000
F2319       F  0.68458518  0.33290835  0.86067790    -0.20300
F2320       F  0.66047884  0.31685482  0.90572306    -0.23000
C2321       C  0.63442390  0.26879904  0.70648267    -0.05800
C2322       C  0.64700552  0.24921201  0.72500692     0.00100
C2323       C  0.63279936  0.22193550  0.73588217    -0.08500
C2324       C  0.60367637  0.21736289  0.73165998    -0.05800
C2325       C  0.58886173  0.23970733  0.71781750     0.00100
C2326       C  0.60502527  0.26425870  0.70246528    -0.08400
C2327       C  0.59049695  0.28658640  0.68408892     0.62000
H2328       H  0.64667445  0.28885358  0.69738878     0.12700
H2329       H  0.59087855  0.19831099  0.74253542     0.12700
C2330       C  0.64747296  0.19904406  0.75372802     0.62200
F2331       F  0.61096805  0.30759689  0.66953692    -0.22900
F2332       F  0.56693504  0.30211599  0.70230462    -0.20200
F2333       F  0.57955159  0.27102184  0.66273762    -0.19900
F2334       F  0.65112817  0.21191548  0.78004256    -0.20000
F2335       F  0.67543204  0.19017062  0.73722430    -0.20300
F2336       F  0.63024190  0.17332984  0.76083808    -0.23000
C2337       C  0.89965648  0.28295797  0.78504189    -0.05800
C2338       C  0.91281445  0.25412266  0.78650490     0.00100
C2339       C  0.89484276  0.22807435  0.79145186    -0.08500
C2340       C  0.86443717  0.23125978  0.79000430    -0.05800
C2341       C  0.85244473  0.25950495  0.78347991     0.00100
C2342       C  0.86925870  0.28616164  0.78330604    -0.08400
C2343       C  0.85611689  0.31727229  0.77832042     0.62000
H2344       H  0.91413397  0.30253859  0.78185896     0.12700
H2345       H  0.85078593  0.21125300  0.79056012     0.12700
C2346       C  0.90849097  0.19674922  0.79435157     0.62200
F2347       F  0.87635468  0.34010114  0.77957817    -0.22900
F2348       F  0.83044015  0.32270880  0.80016621    -0.20200
F2349       F  0.84870599  0.31859167  0.75057049    -0.19900
F2350       F  0.92713939  0.19731523  0.81461585    -0.20000
F2351       F  0.92517229  0.18769591  0.76688525    -0.20300
F2352       F  0.88638385  0.17552383  0.80430523    -0.23000
C2353       C  0.88249418  0.27274521  0.52237620    -0.05800
C2354       C  0.89128389  0.25323804  0.00446389     0.00100
C2355       C  0.87828475  0.23637951  0.98397620    -0.08500
C2356       C  0.84652164  0.23886427  0.98451361    -0.05800
C2357       C  0.82629337  0.25815828  0.00405313     0.00100
C2358       C  0.85075891  0.27518536  0.52261404    -0.08400
C2359       C  0.83112947  0.29645219  0.54472408     0.62000
H2360       H  0.89166098  0.28555105  0.53826193     0.12700
H2361       H  0.83714994  0.22566254  0.96905212     0.12700
C2362       C  0.89766204  0.21506246  0.96172560     0.62200
F2363       F  0.84709436  0.30925567  0.56391474    -0.22900
F2364       F  0.80730851  0.28087832  0.56184694    -0.20200
F2365       F  0.82001221  0.31979322  0.52943263    -0.19900
F2366       F  0.88053492  0.19837979  0.94626382    -0.20000
F2367       F  0.91324769  0.19481997  0.97650935    -0.20300
F2368       F  0.91792274  0.23163250  0.94104852    -0.23000
C2369       C  0.60747118  0.23257876  0.48818391    -0.05800
C2370       C  0.58678169  0.25036163  0.50890194     0.00100
C2371       C  0.58751474  0.26548828  0.03006154    -0.08500
C2372       C  0.61947965  0.26552517  0.02883365    -0.05800
C2373       C  0.65236326  0.24907265  0.50689982     0.00100
C2374       C  0.63945729  0.23132134  0.48695391    -0.08400
C2375       C  0.65936144  0.21136130  0.46373356     0.62000
H2376       H  0.59819710  0.21907419  0.47287129     0.12700
H2377       H  0.62803927  0.27759435  0.04560675     0.12700
C2378       C  0.56686715  0.28417540  0.05388501     0.62200
F2379       F  0.64327096  0.19854568  0.44465942    -0.22900
F2380       F  0.67194168  0.18799790  0.47775441    -0.20200
F2381       F  0.68210577  0.22837116  0.44659513    -0.19900
F2382       F  0.54843287  0.26519738  0.07376653    -0.20000
F2383       F  0.54933147  0.30391844  0.04067950    -0.20300
F2384       F  0.58295861  0.30138317  0.06996459    -0.23000
C2385       C  0.77043104  0.00247039  0.84786663    -0.05800
C2386       C  0.74382632  0.51062963  0.83803861     0.00100
C2387       C  0.71679778  0.51640678  0.86053549    -0.08500
C2388       C  0.71758897  0.51670336  0.89197536    -0.05800
C2389       C  0.74385858  0.51006383  0.90319917     0.00100
C2390       C  0.77080748  0.00085843  0.87926765    -0.08400
C2391       C  0.79970598  0.99128791  0.88874531     0.62000
H2392       H  0.79105079  0.99757796  0.83168789     0.12700
H2393       H  0.69713364  0.52165886  0.90836780     0.12700
C2394       C  0.68665863  0.52198354  0.85175978     0.62200
F2395       F  0.82305318  0.98533113  0.86451806    -0.22900
F2396       F  0.79485970  0.96523370  0.90612864    -0.20200
F2397       F  0.80861696  0.01410742  0.90510757    -0.19900
F2398       F  0.67918223  0.49670998  0.83747710    -0.20000
F2399       F  0.68837418  0.54701371  0.83298418    -0.20300
F2400       F  0.66349821  0.52738508  0.87629328    -0.23000
C2401       C  0.74340835  0.48954699  0.60399410    -0.05800
C2402       C  0.75980233  0.01386713  0.58362769     0.00100
C2403       C  0.77477472  0.03537439  0.59855031    -0.08500
C2404       C  0.77289567  0.03340085  0.63045451    -0.05800
C2405       C  0.75588343  0.01129664  0.64935101     0.00100
C2406       C  0.74088794  0.48837969  0.63589907    -0.08400
C2407       C  0.72322513  0.46301807  0.65378222     0.62000
H2408       H  0.73253008  0.47237444  0.59357688     0.12700
H2409       H  0.78437235  0.04989192  0.64111921     0.12700
C2410       C  0.79325118  0.06039935  0.58082454     0.62200
F2411       F  0.71274132  0.44267488  0.63576293    -0.22900
F2412       F  0.69851252  0.47496674  0.67358032    -0.20200
F2413       F  0.74166764  0.44725434  0.66938443    -0.19900
F2414       F  0.77438101  0.08032425  0.56956765    -0.20000
F2415       F  0.81438458  0.04799374  0.55752793    -0.20300
F2416       F  0.80859116  0.07683904  0.59821781    -0.23000
C2417       C  0.50713789  0.35377320  0.72143728    -0.05800
C2418       C  0.00466041  0.34090826  0.75098114     0.00100
C2419       C  0.00156671  0.35911805  0.77708907    -0.08500
C2420       C  0.00188256  0.39116667  0.77411589    -0.05800
C2421       C  0.00579645  0.40593440  0.74631774     0.00100
C2422       C  0.50754922  0.38585888  0.71858128    -0.08400
C2423       C  0.50983084  0.40075267  0.68819607     0.62000
H2424       H  0.50944126  0.34014460  0.70159239     0.12700
H2425       H  0.99926996  0.40524023  0.79371835     0.12700
C2426       C  0.99765322  0.34533695  0.80821326     0.62200
F2427       F  0.51146767  0.37961681  0.66580784    -0.22900
F2428       F  0.53545315  0.41818992  0.68135353    -0.20200
F2429       F  0.98763960  0.42134196  0.68933142    -0.19900
F2430       F  0.52152606  0.32724863  0.80971566    -0.20000
F2431       F  0.97277936  0.32677817  0.81392435    -0.20300
F2432       F  0.99319003  0.36728507  0.83012822    -0.23000
C2433       C  0.48469458  0.13809064  0.77933320    -0.05800
C2434       C  0.99958804  0.15547061  0.75150593     0.00100
C2435       C  0.01529771  0.13825684  0.72676693    -0.08500
C2436       C  0.01527160  0.10617757  0.72871692    -0.05400
C2437       C  0.99949877  0.09053580  0.75401644     0.00100
C2438       C  0.48411130  0.10599811  0.78160349    -0.08400
C2439       C  0.46794880  0.09113337  0.81054786     0.62000
H2440       H  0.47282839  0.15169244  0.79781057     0.12700
H2441       H  0.02713381  0.09289288  0.70999433     0.12700
C2442       C  0.03264699  0.15349628  0.69853670     0.62200
F2443       F  0.45911152  0.11212363  0.83307585    -0.22900
F2444       F  0.48690206  0.07002452  0.82014163    -0.20200
F2445       F  0.94076391  0.07909743  0.80073293    -0.19900
F2446       F  0.55560486  0.17005377  0.71068504    -0.20000
F2447       F  0.01271913  0.16853805  0.68408214    -0.20300
F2448       F  0.04907863  0.13272523  0.67881598    -0.23000
C2449       C  0.52334095  0.34600289  0.98046927    -0.05800
C2450       C  0.49354180  0.33785499  0.99240388     0.00100
C2451       C  0.98301871  0.36305466  0.50592728    -0.08500
C2452       C  0.99116492  0.39354999  0.50186997    -0.05800
C2453       C  0.50830325  0.39918541  0.98231398     0.00100
C2454       C  0.53141404  0.37642196  0.97535000    -0.08400
C2455       C  0.56434260  0.38361510  0.96226180     0.62000
H2456       H  0.54042662  0.32812072  0.97572766     0.12700
H2457       H  0.97441572  0.41123972  0.50941436     0.12700
C2458       C  0.95095740  0.35490248  0.52111507     0.62200
F2459       F  0.58155965  0.35765113  0.95362765    -0.22900
F2460       F  0.57678511  0.39795503  0.98333235    -0.20200
F2461       F  0.56636413  0.40206348  0.93727563    -0.19900
F2462       F  0.95097850  0.34129767  0.54846739    -0.20000
F2463       F  0.93924504  0.33509805  0.50352532    -0.20300
F2464       F  0.93206677  0.38026585  0.52596163    -0.23000
C2465       C  0.46877630  0.14792764  0.50387254    -0.05800
C2466       C  0.98844117  0.16154312  0.51810235     0.00100
C2467       C  0.99859370  0.13786030  0.00647853    -0.08500
C2468       C  0.99520319  0.10675939  0.01284799    -0.05800
C2469       C  0.98227470  0.09832342  0.52333627     0.00100
C2470       C  0.46491832  0.11644981  0.50660155    -0.08400
C2471       C  0.44457619  0.10089294  0.48920194     0.62000
H2472       H  0.45704337  0.16101172  0.48966792     0.12700
H2473       H  0.00948445  0.09061469  0.99843811     0.12700
C2474       C  0.02364121  0.14792248  0.98071221     0.62200
F2475       F  0.43243995  0.12116482  0.47139029    -0.22900
F2476       F  0.42086268  0.08741263  0.50874307    -0.20200
F2477       F  0.46099270  0.07901226  0.47090286    -0.19900
F2478       F  0.04013846  0.17062493  0.98992701    -0.20000
F2479       F  0.01128292  0.15843554  0.95729145    -0.20300
F2480       F  0.04356114  0.12431830  0.97020272    -0.23000
C2481       C  0.88419665  0.03052496  0.96489639    -0.05800
C2482       C  0.89607762  0.00296186  0.97301502     0.00100
C2483       C  0.88794964  0.46826606  0.47476522    -0.08500
C2484       C  0.85695090  0.47162029  0.47565937    -0.05800
C2485       C  0.83593925  0.00698216  0.96884224     0.00100
C2486       C  0.85409099  0.03315375  0.96237325    -0.08400
C2487       C  0.84210069  0.06414226  0.95488497     0.62000
H2488       H  0.89804094  0.05053595  0.96294718     0.12700
H2489       H  0.84188458  0.45380003  0.48567052     0.12700
C2490       C  0.90014410  0.44000255  0.48789551     0.62200
F2491       F  0.82562791  0.07752880  0.98051166    -0.22900
F2492       F  0.82411181  0.06139092  0.93423834    -0.20200
F2493       F  0.86538277  0.08334860  0.94254254    -0.19900
F2494       F  0.91235383  0.44771369  0.51194289    -0.20000
F2495       F  0.92231001  0.42633462  0.46640803    -0.20300
F2496       F  0.87778068  0.41901178  0.49774748    -0.23000
C2497       C  0.64001471  0.03581908  0.01618218    -0.05800
C2498       C  0.66685497  0.52594252  0.52357999     0.00100
C2499       C  0.64937763  0.50456083  0.54286519    -0.08500
C2500       C  0.61849976  0.50373777  0.54348175    -0.05800
C2501       C  0.60516840  0.52477837  0.52698477     0.00100
C2502       C  0.60843961  0.03566678  0.02273162    -0.08400
C2503       C  0.59062051  0.06224438  0.01325390     0.62000
H2504       H  0.65166668  0.05477852  0.00389213     0.12700
H2505       H  0.60530778  0.48495426  0.55448263     0.12700
C2506       C  0.66297823  0.48101480  0.56075703     0.62200
F2507       F  0.60925606  0.08546937  0.00033176    -0.22900
F2508       F  0.57082342  0.07372942  0.03801608    -0.20200
F2509       F  0.57445152  0.05289268  0.99267851    -0.19900
F2510       F  0.68817283  0.49222217  0.56915220    -0.20000
F2511       F  0.67090352  0.45515412  0.54394128    -0.20300
F2512       F  0.64237420  0.47332688  0.58657739    -0.23000
C2513       C  0.54659470  0.50613220  0.86742326    -0.05800
C2514       C  0.02852020  0.48651493  0.88823801     0.00100
C2515       C  0.01215665  0.46486501  0.87597831    -0.08500
C2516       C  0.01084817  0.46771483  0.84590449    -0.05800
C2517       C  0.02591083  0.49090996  0.82786551     0.00100
C2518       C  0.54529330  0.50850112  0.83706902    -0.08400
C2519       C  0.56320947  0.02889807  0.82576802     0.62000
H2520       H  0.55941347  0.52219291  0.87716051     0.12700
H2521       H  0.99723423  0.45228034  0.83635362     0.12700
C2522       C  0.99605075  0.43896429  0.89460827     0.62200
F2523       F  0.57980395  0.04569380  0.84169863    -0.22900
F2524       F  0.54601357  0.04891879  0.81253790    -0.20200
F2525       F  0.58386669  0.51983980  0.79484418    -0.19900
F2526       F  0.97250714  0.45024358  0.91615898    -0.20000
F2527       F  0.01616918  0.42312727  0.90823583    -0.20300
F2528       F  0.98426221  0.41875316  0.87741822    -0.23000
C2529       C  0.49845785  0.97950437  0.65327407    -0.05800
C2530       C  0.48036207  0.99873926  0.67407097     0.00100
C2531       C  0.96223064  0.52437818  0.65953848    -0.08500
C2532       C  0.95825762  0.01684456  0.63167423    -0.05800
C2533       C  0.47629806  0.00076023  0.61406359     0.00100
C2534       C  0.49643783  0.97967631  0.62337637    -0.08400
C2535       C  0.51597718  0.95758119  0.60195845     0.62000
H2536       H  0.51509413  0.96488649  0.66044994     0.12700
H2537       H  0.94647052  0.54282519  0.62140159     0.12700
C2538       C  0.94492196  0.54747280  0.68126284     0.62200
F2539       F  0.52850358  0.93498388  0.61708596    -0.22900
F2540       F  0.53933385  0.97280675  0.58363638    -0.20200
F2541       F  0.49870323  0.94369069  0.58464664    -0.19900
F2542       F  0.95535542  0.05694479  0.69697468    -0.20000
F2543       F  0.92448080  0.53281441  0.70340114    -0.20300
F2544       F  0.92897350  0.56816225  0.66727908    -0.23000
O2545       O  0.58165586  0.99108565  0.50756728    -0.80900
O2546       O  0.95947047  0.98308448  0.46450672    -0.65600
O2547       O  0.53327214  0.50827025  0.47570547    -1.12200
C2548       C  0.46304073  0.49718899  0.08406097     1.06000
O2549       O  0.92607582  0.52173621  0.99997952    -0.78800
O2550       O  0.94809550  0.55014260  0.04114130    -0.66400
Ni2551     Ni  0.56945318  0.98546301  0.47039116     1.34900
C2552       C  0.97400772  0.56159427  0.03329107     0.84700
O2553       O  0.01203581  0.99710523  0.42923848    -0.79400
O2554       O  0.56045727  0.97800645  0.43177252    -0.89600
C2555       C  0.93508162  0.49701203  0.47309305     0.84300
O2556       O  0.55205892  0.94817893  0.48592272    -0.67800
O2557       O  0.94070285  0.49852025  0.07666884    -0.87100
C2558       C  0.52777474  0.93704891  0.48190474     0.85100
C2559       C  0.03587528  0.98360502  0.41554680     1.06700
H2560       H  0.96777218  0.96953491  0.02956621     0.38500
O2561       O  0.96950320  0.99080388  0.02423628    -1.09800
O2562       O  0.49707457  0.54441015  0.02475987    -0.66400
Ni2563     Ni  0.50672522  0.50228230  0.02702922     1.26300
O2564       O  0.00738512  0.95273320  0.47094693    -0.66700
O2565       O  0.48982540  0.50083853  0.06889014    -0.79000
C2566       C  0.56440103  0.00168170  0.03223483     0.84500
O2567       O  0.54333882  0.51525642  0.03536926    -0.66100
Ni2568     Ni  0.93420674  0.50988008  0.03790687     1.27400
Ni2569     Ni  0.99742418  0.99528356  0.47093585     1.26100
H2570       H  0.53696856  0.52828452  0.46681546     0.39000
O2571       O  0.50831511  0.47763175  0.19969023    -0.74500
O2572       O  0.54601670  0.97205121  0.27545217    -0.74500
O2573       O  0.53172233  0.93089811  0.23740393    -0.74500
O2574       O  0.52281852  0.51762938  0.23839701    -0.74600
O2575       O  0.97775334  0.50460386  0.26778388    -0.74500
O2576       O  0.97763917  0.91712275  0.26639606    -0.74500
O2577       O  0.99169812  0.96168661  0.30097383    -0.74500
O2578       O  0.96385763  0.46553616  0.22767130    -0.74500
Ni2579     Ni  0.52537444  0.47397920  0.23409664     1.25400
Ni2580     Ni  0.97399714  0.96092120  0.26703741     1.25400
C2581       C  0.98278964  0.46923718  0.20291450     0.87700
C2582       C  0.02023137  0.96363262  0.29881760     0.87700
C2583       C  0.00194229  0.90319917  0.25336005     0.87700
C2584       C  0.00097415  0.52035050  0.25649913     0.87900
O2585       O  0.71621171  0.54401252  0.50506635    -0.74500
O2586       O  0.80065797  0.53066604  0.47956006    -0.74500
O2587       O  0.75476048  0.53711400  0.44946937    -0.74500
O2588       O  0.75144859  0.53569177  0.03690129    -0.74600
O2589       O  0.74830072  0.98515834  0.03725405    -0.74500
O2590       O  0.75172211  0.98845831  0.45026776    -0.74500
O2591       O  0.78858021  0.98347376  0.98255311    -0.74500
O2592       O  0.70360689  0.98503774  0.00567094    -0.74500
Ni2593     Ni  0.75863904  0.53891333  0.49199480     1.25400
Ni2594     Ni  0.74614677  0.98258370  0.99418977     1.25400
C2595       C  0.69026736  0.51155701  0.01390381     0.87700
C2596       C  0.81166185  0.50374737  0.47635581     0.87700
C2597       C  0.75176335  0.51199258  0.43607343     0.87700
C2598       C  0.75142790  0.51059891  0.05201800     0.87900
O2599       O  0.50240584  0.70635028  0.48074660    -0.74500
O2600       O  0.50974036  0.79224016  0.46851481    -0.74500
O2601       O  0.54914315  0.74669790  0.47656849    -0.74500
O2602       O  0.96309745  0.75298744  0.47086344    -0.74600
O2603       O  0.93906095  0.75302075  0.02498910    -0.74500
O2604       O  0.52504488  0.74893982  0.02887495    -0.74500
O2605       O  0.98389556  0.79475123  0.01997677    -0.74500
O2606       O  0.98066977  0.70902160  0.03300885    -0.74500
Ni2607     Ni  0.50657666  0.74905894  0.47281977     1.25400
Ni2608     Ni  0.98192490  0.75219593  0.02800782     1.25400
C2609       C  0.49474495  0.69577852  0.50742097     0.87700
C2610       C  0.50421783  0.80952200  0.49132616     0.87700
C2611       C  0.55741129  0.75054235  0.50152736     0.87700
C2612       C  0.94236502  0.75652436  0.49475443     0.87900
O2613       O  0.96251634  0.71464101  0.29931231    -0.74500
O2614       O  0.55158238  0.71801799  0.26711246    -0.74500
O2615       O  0.00674204  0.75563097  0.28531528    -0.74500
O2616       O  0.00357712  0.66759330  0.28712889    -0.74600
O2617       O  0.50348699  0.68023459  0.23098219    -0.74500
O2618       O  0.50974728  0.76757134  0.23055351    -0.74500
O2619       O  0.54935236  0.71989350  0.21902056    -0.74500
O2620       O  0.95892746  0.71380653  0.25143677    -0.74500
Ni2621     Ni  0.00532328  0.71163442  0.28816013     1.25400
Ni2622     Ni  0.50650448  0.72389976  0.22909844     1.25400
C2623       C  0.94694638  0.71631607  0.27922772     0.87700
C2624       C  0.56457014  0.71843705  0.23944710     0.87700
C2625       C  0.00479870  0.77027366  0.26130874     0.87700
C2626       C  0.00247793  0.65344085  0.26302976     0.87900
O2627       O  0.83996945  0.74184195  0.23175960    -0.80900
O2628       O  0.70539026  0.75000123  0.22178229    -0.65600
O2629       O  0.78595140  0.76703644  0.22380169    -1.12200
C2630       C  0.75230273  0.78135114  0.32453121     1.06000
O2631       O  0.68038940  0.76297162  0.26736074    -0.78800
O2632       O  0.72062904  0.81037466  0.26035569    -0.66400
Ni2633     Ni  0.81598368  0.74016416  0.20200736     1.34900
C2634       C  0.74588936  0.82325115  0.25821811     0.84700
O2635       O  0.75324621  0.76351020  0.18149790    -0.79400
O2636       O  0.79458980  0.73462162  0.16993538    -0.89600
C2637       C  0.68184936  0.75106584  0.24213928     0.84300
O2638       O  0.79841790  0.70479524  0.22173843    -0.67800
O2639       O  0.73223300  0.79516861  0.31397390    -0.87100
C2640       C  0.77157636  0.69640232  0.22334946     0.85100
C2641       C  0.77054688  0.74599143  0.16370201     1.06700
H2642       H  0.73711642  0.73287008  0.27191262     0.38500
O2643       O  0.73980536  0.75384222  0.26547623    -1.09800
O2644       O  0.76898848  0.80932875  0.26467570    -0.66400
Ni2645     Ni  0.77933982  0.76604349  0.26600928     1.26300
O2646       O  0.75076094  0.71485087  0.21971229    -0.66700
O2647       O  0.77185573  0.76452987  0.30827409    -0.79000
C2648       C  0.84004577  0.75683563  0.25530965     0.84500
O2649       O  0.81962113  0.77608446  0.26581795    -0.66100
Ni2650     Ni  0.70854541  0.77856496  0.28832018     1.27400
Ni2651     Ni  0.74564746  0.75845782  0.22300521     1.26100
H2652       H  0.79049423  0.78732029  0.21613141     0.39000
O2653       O  0.75914617  0.74621724  0.45051948    -0.74500
O2654       O  0.73658927  0.71427569  0.03554769    -0.74500
O2655       O  0.69726290  0.72541782  0.99763851    -0.74500
O2656       O  0.78490363  0.73016198  0.99265368    -0.74600
O2657       O  0.79046658  0.78143187  0.50517999    -0.74500
O2658       O  0.70292845  0.77592691  0.50861363    -0.74500
O2659       O  0.72950225  0.76249392  0.05017295    -0.74500
O2660       O  0.75217629  0.79384538  0.46706430    -0.74500
Ni2661     Ni  0.74129847  0.72609294  0.99469317     1.25400
Ni2662     Ni  0.74646160  0.78040728  0.50743831     1.25400
C2663       C  0.75722104  0.77473813  0.44584427     0.87700
C2664       C  0.73284061  0.73433386  0.05591157     0.87700
C2665       C  0.67957593  0.74873811  0.00476692     0.87700
C2666       C  0.80855677  0.75871133  0.49647253     0.87900
O2667       O  0.72911703  0.55627955  0.24684673    -0.74500
O2668       O  0.72396677  0.96902017  0.25042873    -0.74500
O2669       O  0.72625386  0.01357862  0.29178818    -0.74500
O2670       O  0.72583225  0.51168106  0.20605576    -0.74600
O2671       O  0.77577685  0.50818928  0.19567051    -0.74500
O2672       O  0.77613933  0.00912654  0.28116173    -0.74500
O2673       O  0.77423320  0.96646542  0.23824873    -0.74500
O2674       O  0.77924149  0.55116674  0.23784837    -0.74500
Ni2675     Ni  0.72408882  0.01265599  0.24891896     1.25400
Ni2676     Ni  0.77730876  0.50808760  0.23896667     1.25400
C2677       C  0.75541915  0.56789071  0.24188395     0.87700
C2678       C  0.74874652  0.95352245  0.24546040     0.87700
C2679       C  0.75124410  0.01181484  0.30119752     0.87700
C2680       C  0.75078057  0.50968290  0.18613196     0.87900
C2681       C  0.74145697  0.61655191  0.22151627    -0.05800
C2682       C  0.75835125  0.60103539  0.23946500     0.00100
C2683       C  0.77804739  0.61715852  0.25359838    -0.08500
C2684       C  0.78073475  0.64850497  0.24838558    -0.05800
C2685       C  0.76475535  0.66398487  0.22945406     0.00100
C2686       C  0.74451316  0.64783924  0.21581981    -0.08400
C2687       C  0.72732122  0.66280663  0.19420319     0.62000
H2688       H  0.72651587  0.60360125  0.21108750     0.12700
H2689       H  0.79590820  0.66119999  0.25875525     0.12700
C2690       C  0.79594010  0.60165789  0.27432737     0.62200
F2691       F  0.71194990  0.64189913  0.18105471    -0.22900
F2692       F  0.74725343  0.67741096  0.17162925    -0.20200
F2693       F  0.70630088  0.68347798  0.20908910    -0.19900
F2694       F  0.81829187  0.58307275  0.25812400    -0.20000
F2695       F  0.77695232  0.58448795  0.29555144    -0.20300
F2696       F  0.80971571  0.62245798  0.28921959    -0.23000
C2697       C  0.76460125  0.87299444  0.26830438    -0.05800
C2698       C  0.74738442  0.85632480  0.25230290     0.00100
C2699       C  0.73040339  0.87185177  0.23376385    -0.08500
C2700       C  0.73118380  0.90376743  0.23233645    -0.05800
C2701       C  0.74833728  0.92022652  0.24850986     0.00100
C2702       C  0.76499662  0.90475417  0.26719502    -0.08400
C2703       C  0.78135885  0.92165757  0.28757310     0.62000
H2704       H  0.77689083  0.86091316  0.28283548     0.12700
H2705       H  0.71829042  0.91617671  0.21861051     0.12700
C2706       C  0.71201085  0.85512947  0.21512475     0.62200
F2707       F  0.79291521  0.90217128  0.30648737    -0.22900
F2708       F  0.76133931  0.94155762  0.30505630    -0.20200
F2709       F  0.80521612  0.93758198  0.27090741    -0.19900
F2710       F  0.68678054  0.84274222  0.23340643    -0.20000
F2711       F  0.72949017  0.83228997  0.19919167    -0.20300
F2712       F  0.70214042  0.87431733  0.19485285    -0.23000
C2713       C  0.72992604  0.74498695  0.13571084    -0.05800
C2714       C  0.76009010  0.73702034  0.13654607     0.00100
C2715       C  0.77762804  0.71993012  0.11263061    -0.08500
C2716       C  0.76499905  0.71430422  0.08776396    -0.05800
C2717       C  0.73654420  0.72621870  0.08581624     0.00100
C2718       C  0.71786951  0.73974382  0.11080831    -0.08400
C2719       C  0.68557265  0.75012707  0.11172238     0.62000
H2720       H  0.71539367  0.75621948  0.15446878     0.12700
H2721       H  0.77871171  0.70375332  0.06812564     0.12700
C2722       C  0.80986046  0.70914481  0.11206088     0.62200
F2723       F  0.66695026  0.73795984  0.13683444    -0.22900
F2724       F  0.67514495  0.74092133  0.08706077    -0.20200
F2725       F  0.68367763  0.78146038  0.11326094    -0.19900
F2726       F  0.81014756  0.68857072  0.13506509    -0.20000
F2727       F  0.82758645  0.73366130  0.11493765    -0.20300
F2728       F  0.82282272  0.69482890  0.08558512    -0.23000
C2729       C  0.78193334  0.78297814  0.36334747    -0.05800
C2730       C  0.75351644  0.78563627  0.35587306     0.00100
C2731       C  0.72703464  0.78977127  0.37862331    -0.08500
C2732       C  0.73026723  0.79024185  0.40825909    -0.05800
C2733       C  0.75833836  0.78497493  0.41554250     0.00100
C2734       C  0.78481683  0.78223839  0.39303594    -0.08400
C2735       C  0.81628312  0.77754293  0.39900727     0.62000
H2736       H  0.80207525  0.78024316  0.34584776     0.12700
H2737       H  0.71047068  0.79200060  0.42626882     0.12700
C2738       C  0.69532096  0.79106419  0.37232224     0.62200
F2739       F  0.83510584  0.79950681  0.38375002    -0.22900
F2740       F  0.82738027  0.74926636  0.38882449    -0.20200
F2741       F  0.81698549  0.77949479  0.42890456    -0.19900
F2742       F  0.69085430  0.76592405  0.35611615    -0.20000
F2743       F  0.69144147  0.81725255  0.35649015    -0.20300
F2744       F  0.67316012  0.79117216  0.39831866    -0.23000
C2745       C  0.64276691  0.74775676  0.21300955    -0.05800
C2746       C  0.65490417  0.73697077  0.23681436     0.00100
C2747       C  0.64056701  0.71380895  0.25600002    -0.08500
C2748       C  0.61226087  0.70459318  0.25261518    -0.05800
C2749       C  0.59762314  0.71920194  0.23213568     0.00100
C2750       C  0.61365229  0.73970747  0.21058218    -0.08400
C2751       C  0.59951230  0.75502215  0.18687459     0.62000
H2752       H  0.65516215  0.76456330  0.19802669     0.12700
H2753       H  0.59991961  0.68824091  0.26820721     0.12700
C2754       C  0.65413239  0.70011029  0.28100121     0.62200
F2755       F  0.61956653  0.77376891  0.16826923    -0.22900
F2756       F  0.57494398  0.77268440  0.20028743    -0.20200
F2757       F  0.59038885  0.73324067  0.16939881    -0.19900
F2758       F  0.65294837  0.72117113  0.30331974    -0.20000
F2759       F  0.68388031  0.69133601  0.27008465    -0.20300
F2760       F  0.63860010  0.67478790  0.29365271    -0.23000
C2761       C  0.90838718  0.75579996  0.28974313    -0.05800
C2762       C  0.91517376  0.72461523  0.28711210     0.00100
C2763       C  0.89340434  0.70410547  0.28244361    -0.08500
C2764       C  0.86706944  0.71599454  0.27521138    -0.05800
C2765       C  0.86272395  0.74751438  0.27228132     0.00100
C2766       C  0.88196229  0.76784782  0.28238008    -0.08400
C2767       C  0.87598900  0.80182274  0.28310681     0.62000
H2768       H  0.92551455  0.77090118  0.29408730     0.12700
H2769       H  0.85088404  0.70071386  0.26927287     0.12700
C2770       C  0.89903038  0.67007338  0.28343150     0.62200
F2771       F  0.89748595  0.81711726  0.29434709    -0.22900
F2772       F  0.84805048  0.80810838  0.30122257    -0.20200
F2773       F  0.87642247  0.81262786  0.25455972    -0.19900
F2774       F  0.90688182  0.66222352  0.31014152    -0.20000
F2775       F  0.92228039  0.66151656  0.26008012    -0.20300
F2776       F  0.87358151  0.65406718  0.28137786    -0.23000
C2777       C  0.87557324  0.76634437  0.02188551    -0.05800
C2778       C  0.90825282  0.75796330  0.49367201     0.00100
C2779       C  0.89570590  0.74558054  0.47025988    -0.08500
C2780       C  0.86363675  0.74607271  0.47241095    -0.05800
C2781       C  0.84281858  0.76013200  0.49591242     0.00100
C2782       C  0.84366045  0.76868912  0.02295337    -0.08400
C2783       C  0.82360925  0.78544584  0.04867611     0.62000
H2784       H  0.88469931  0.77706748  0.03905778     0.12700
H2785       H  0.85444237  0.73583920  0.45502398     0.12700
C2786       C  0.91585013  0.73181610  0.44269012     0.62200
F2787       F  0.83934630  0.79388642  0.06998209    -0.22900
F2788       F  0.80037141  0.76706187  0.06252742    -0.20200
F2789       F  0.81164803  0.81142379  0.03810533    -0.19900
F2790       F  0.89933365  0.72014759  0.42338760    -0.20000
F2791       F  0.93329491  0.70840616  0.45090013    -0.20300
F2792       F  0.93433706  0.75392060  0.42723674    -0.23000
C2793       C  0.60155745  0.73111369  0.98399869    -0.05800
C2794       C  0.58003769  0.74675820  0.00586599     0.00100
C2795       C  0.60431164  0.76850712  0.52243644    -0.08500
C2796       C  0.63634432  0.76787248  0.52104463    -0.05800
C2797       C  0.64538297  0.74733263  0.00452344     0.00100
C2798       C  0.63350023  0.73112967  0.98282936    -0.08400
C2799       C  0.65457430  0.71467709  0.95752753     0.62000
H2800       H  0.59305440  0.71846642  0.96755891     0.12700
H2801       H  0.64536880  0.78132899  0.53657040     0.12700
C2802       C  0.58426073  0.78908742  0.54492139     0.62200
F2803       F  0.63941288  0.70417006  0.93656203    -0.22900
F2804       F  0.66804508  0.68997626  0.96872275    -0.20200
F2805       F  0.67662438  0.73419549  0.94305660    -0.19900
F2806       F  0.56547886  0.77171086  0.56615468    -0.20000
F2807       F  0.56702515  0.80799102  0.53053633    -0.20300
F2808       F  0.60091920  0.80724059  0.55958164    -0.23000
C2809       C  0.77113841  0.49494677  0.34896268    -0.05800
C2810       C  0.75141398  0.01268313  0.33559835     0.00100
C2811       C  0.73038265  0.03003711  0.35734418    -0.08500
C2812       C  0.73225618  0.02984549  0.38846723    -0.05800
C2813       C  0.75386633  0.01251966  0.40013768     0.00100
C2814       C  0.77217897  0.49384645  0.38026442    -0.08400
C2815       C  0.79625826  0.47432329  0.39020222     0.62000
H2816       H  0.78711053  0.48133707  0.33332283     0.12700
H2817       H  0.71613073  0.04310584  0.40431514     0.12700
C2818       C  0.70600125  0.04952077  0.34783605     0.62200
F2819       F  0.81576783  0.46085442  0.36631246    -0.22900
F2820       F  0.78284015  0.45155850  0.40920045    -0.20200
F2821       F  0.81317486  0.49200050  0.40493702    -0.19900
F2822       F  0.68522425  0.03115799  0.33894961    -0.20000
F2823       F  0.71873517  0.06846119  0.32445154    -0.20300
F2824       F  0.69064785  0.06758230  0.37083279    -0.23000
C2825       C  0.73168464  0.99194125  0.10590502    -0.05800
C2826       C  0.75235238  0.51050121  0.08620494     0.00100
C2827       C  0.77493352  0.52485650  0.09865607    -0.08500
C2828       C  0.77393021  0.52370130  0.13047160    -0.05800
C2829       C  0.75074764  0.50933744  0.15169011     0.00100
C2830       C  0.72981548  0.99219220  0.13779121    -0.08400
C2831       C  0.70650351  0.97267082  0.15776981     0.62000
H2832       H  0.71734250  0.97698033  0.09698617     0.12700
H2833       H  0.79134452  0.53472972  0.13913377     0.12700
C2834       C  0.80077093  0.54080719  0.07812125     0.62200
F2835       F  0.69157058  0.95435329  0.14153080    -0.22900
F2836       F  0.68515377  0.99110699  0.17559806    -0.20200
F2837       F  0.72040072  0.95413769  0.17557511    -0.19900
F2838       F  0.78971924  0.56552848  0.06463040    -0.20000
F2839       F  0.81536349  0.52097518  0.05637071    -0.20300
F2840       F  0.82181731  0.55109244  0.09341392    -0.23000
C2841       C  0.52454937  0.83108887  0.22779713    -0.05800
C2842       C  0.00497286  0.80453538  0.26000516     0.00100
C2843       C  0.02056812  0.82279830  0.27706516    -0.08500
C2844       C  0.01936505  0.85484787  0.27394752    -0.05800
C2845       C  0.00343118  0.86928354  0.25437649     0.00100
C2846       C  0.52511713  0.86322649  0.22550421    -0.08400
C2847       C  0.54010484  0.87813480  0.19615374     0.62000
H2848       H  0.53435521  0.81762867  0.20847113     0.12700
H2849       H  0.03060849  0.86905153  0.28716190     0.12700
C2850       C  0.03894890  0.80880604  0.29808472     0.62200
F2851       F  0.54954031  0.85705958  0.17381718    -0.22900
F2852       F  0.56526493  0.89365080  0.19983607    -0.20200
F2853       F  0.94977858  0.88476092  0.22783961    -0.19900
F2854       F  0.50914487  0.80450978  0.32120767    -0.20000
F2855       F  0.01985700  0.79529561  0.32209807    -0.20300
F2856       F  0.05543641  0.83031419  0.30914741    -0.23000
C2857       C  0.48086918  0.61577061  0.27537117    -0.05800
C2858       C  0.00307815  0.61944559  0.26239062     0.00100
C2859       C  0.02558833  0.60285323  0.24231727    -0.08500
C2860       C  0.02384002  0.57093022  0.24142889    -0.05400
C2861       C  0.00059448  0.55454442  0.26001279     0.00100
C2862       C  0.47808398  0.58372543  0.27574189    -0.08400
C2863       C  0.45270579  0.56946076  0.29857243     0.62000
H2864       H  0.46524497  0.62954133  0.29122153     0.12700
H2865       H  0.04082162  0.55850405  0.22567596     0.12700
C2866       C  0.05207777  0.61873167  0.22249210     0.62200
F2867       F  0.43653312  0.59076083  0.31786900    -0.22900
F2868       F  0.46443613  0.54809939  0.31560720    -0.20200
F2869       F  0.93394211  0.54231834  0.28841134    -0.19900
F2870       F  0.56521473  0.64676637  0.22486842    -0.20000
F2871       F  0.04204604  0.63669340  0.20149788    -0.20300
F2872       F  0.07335335  0.59827080  0.20741380    -0.23000
C2873       C  0.53884203  0.85141257  0.47671423    -0.05800
C2874       C  0.50915960  0.84211984  0.48759680     0.00100
C2875       C  0.97119208  0.85928603  0.99803269    -0.08500
C2876       C  0.97771106  0.89035555  0.99500521    -0.05800
C2877       C  0.52298766  0.90405165  0.48506536     0.00100
C2878       C  0.54645833  0.88217273  0.47559882    -0.08400
C2879       C  0.57929659  0.89081528  0.46430237     0.62000
H2880       H  0.55624128  0.83411622  0.47005871     0.12700
H2881       H  0.95983820  0.90695238  0.00252908     0.12700
C2882       C  0.93914664  0.84914513  0.01074273     0.62200
F2883       F  0.59746675  0.86589207  0.45401932    -0.22900
F2884       F  0.59028269  0.90338698  0.48725259    -0.20200
F2885       F  0.58175012  0.91146897  0.44096266    -0.19900
F2886       F  0.93782715  0.83458816  0.03788281    -0.20000
F2887       F  0.93020996  0.82940543  0.99119162    -0.20300
F2888       F  0.91884565  0.87342116  0.01522405    -0.23000
C2889       C  0.45849666  0.64588622  0.03715208    -0.05800
C2890       C  0.98417308  0.65788235  0.01635960     0.00100
C2891       C  0.00171186  0.64704733  0.53215009    -0.08500
C2892       C  0.99795062  0.61552624  0.53425610    -0.05800
C2893       C  0.97693303  0.59507400  0.02938394     0.00100
C2894       C  0.45413038  0.61475096  0.04319524    -0.08400
C2895       C  0.42674396  0.60484933  0.06645734     0.62000
H2896       H  0.44206415  0.66232694  0.04852492     0.12700
H2897       H  0.00630064  0.60245427  0.55110500     0.12700
C2898       C  0.01714879  0.66265281  0.55410035     0.62200
F2899       F  0.41200200  0.62921851  0.08240705    -0.22900
F2900       F  0.43558168  0.58485587  0.08666170    -0.20200
F2901       F  0.40634994  0.59100413  0.05260074    -0.19900
F2902       F  0.99647819  0.68100028  0.57283039    -0.20000
F2903       F  0.04068962  0.68001692  0.53881573    -0.20300
F2904       F  0.02893172  0.64197513  0.57179311    -0.23000
C2905       C  0.89529750  0.51813468  0.45096431    -0.05800
C2906       C  0.90676978  0.49277193  0.46370475     0.00100
C2907       C  0.87951582  0.97601958  0.97484046    -0.08500
C2908       C  0.84965613  0.97847121  0.97176678    -0.05800
C2909       C  0.84465602  0.49909931  0.46710970     0.00100
C2910       C  0.86431114  0.52207955  0.45262022    -0.08400
C2911       C  0.85327417  0.55183957  0.44109831     0.62000
H2912       H  0.91054747  0.53643659  0.44261040     0.12700
H2913       H  0.83612972  0.95826816  0.97460777     0.12700
C2914       C  0.89213607  0.94544671  0.98291123     0.62200
F2915       F  0.84172511  0.57069493  0.46484703    -0.22900
F2916       F  0.83130813  0.54656346  0.42504912    -0.20200
F2917       F  0.87649774  0.56694990  0.42231959    -0.19900
F2918       F  0.90073252  0.94728862  0.01004039    -0.20000
F2919       F  0.91686233  0.93709511  0.96108998    -0.20300
F2920       F  0.87113922  0.92265684  0.98531684    -0.23000
C2921       C  0.65251327  0.55034634  0.51194765    -0.05800
C2922       C  0.65688864  0.01065120  0.02304547     0.00100
C2923       C  0.64208976  0.98633914  0.04061619    -0.08500
C2924       C  0.61059994  0.98622524  0.04685657    -0.05800
C2925       C  0.59404572  0.00950484  0.03652349     0.00100
C2926       C  0.62134372  0.55015576  0.51352457    -0.08400
C2927       C  0.60632023  0.57500181  0.49825275     0.62000
H2928       H  0.66610423  0.56763843  0.49876026     0.12700
H2929       H  0.59867659  0.96662577  0.05764624     0.12700
C2930       C  0.65884719  0.96015957  0.05224554     0.62200
F2931       F  0.62585317  0.59848065  0.48814618    -0.22900
F2932       F  0.58166447  0.58686125  0.51823913    -0.20200
F2933       F  0.59675428  0.56329817  0.47406385    -0.19900
F2934       F  0.68160549  0.97126070  0.06465275    -0.20000
F2935       F  0.67097546  0.94060199  0.02927668    -0.20300
F2936       F  0.63991549  0.94361244  0.07420545    -0.23000
C2937       C  0.55784564  0.99611218  0.36605131    -0.05800
C2938       C  0.03714393  0.97499705  0.38478063     0.00100
C2939       C  0.02156599  0.94933216  0.37825353    -0.08500
C2940       C  0.01900950  0.94503543  0.34888051    -0.05800
C2941       C  0.03118353  0.96564744  0.32636380     0.00100
C2942       C  0.55655122  0.99298168  0.33592411    -0.08400
C2943       C  0.56678545  0.51324015  0.30745125     0.62000
H2944       H  0.56988294  0.01473767  0.37304113     0.12700
H2945       H  0.00593464  0.92639922  0.34346159     0.12700
C2946       C  0.00682468  0.92711908  0.40223334     0.62200
F2947       F  0.58338704  0.53365404  0.31977599    -0.22900
F2948       F  0.54549551  0.52954540  0.29579948    -0.20200
F2949       F  0.59287590  0.99996553  0.29088705    -0.19900
F2950       F  0.98390767  0.94163464  0.42208792    -0.20000
F2951       F  0.02819456  0.91570302  0.41706997    -0.20300
F2952       F  0.99441207  0.90285099  0.39052429    -0.23000
C2953       C  0.46068713  0.46019712  0.15894808    -0.05800
C2954       C  0.46889666  0.48489104  0.17420394     0.00100
C2955       C  0.94376781  0.98435063  0.17393353    -0.08500
C2956       C  0.96686554  0.51332387  0.13699661    -0.05800
C2957       C  0.45987919  0.49279789  0.11616215     0.00100
C2958       C  0.45643258  0.46365255  0.12960068    -0.08400
C2959       C  0.45016303  0.43627787  0.11230350     0.62000
H2960       H  0.45961406  0.43794860  0.16944251     0.12700
H2961       H  0.92622807  0.01065694  0.14091935     0.12700
C2962       C  0.92181528  0.99823611  0.20025956     0.62200
F2963       F  0.44754442  0.41003986  0.12956571    -0.22900
F2964       F  0.47349677  0.43194005  0.08772154    -0.20200
F2965       F  0.42343047  0.44098800  0.10278477    -0.19900
F2966       F  0.00792327  0.53078599  0.18812780    -0.20000
F2967       F  0.90654029  0.97538821  0.21790516    -0.20300
F2968       F  0.90050465  0.01697629  0.19116120    -0.23000
O2969       O  0.56241985  0.97836126  0.01696734    -0.80900
O2970       O  0.94482958  0.98610870  0.97510847    -0.65600
O2971       O  0.52242968  0.50346367  0.98489828    -1.12200
C2972       C  0.47661948  0.50699764  0.57585512     1.06000
O2973       O  0.93644083  0.51907920  0.49016352    -0.78800
O2974       O  0.95711600  0.55461147  0.52773174    -0.66400
Ni2975     Ni  0.55355954  0.98114803  0.97802581     1.34900
C2976       C  0.98221560  0.56708373  0.51779947     0.84700
O2977       O  0.99763890  0.99856807  0.94065355    -0.79400
O2978       O  0.54585599  0.98237295  0.93805540    -0.89600
C2979       C  0.92498860  0.50291903  0.97956109     0.84300
O2980       O  0.53761281  0.94163052  0.98456058    -0.67800
O2981       O  0.95357494  0.50759167  0.56775120    -0.87100
C2982       C  0.51152520  0.93165829  0.98551611     0.85100
C2983       C  0.02298545  0.99012567  0.92496638     1.06700
H2984       H  0.98424936  0.97213904  0.51963575     0.38500
O2985       O  0.98464421  0.99309523  0.51314243    -1.09800
O2986       O  0.50619474  0.55205154  0.51232721    -0.66400
Ni2987     Ni  0.51830066  0.51100506  0.51776486     1.26300
O2988       O  0.99017486  0.95152644  0.97977326    -0.66700
O2989       O  0.50246316  0.51268575  0.55965325    -0.79000
C2990       C  0.57932134  0.01537204  0.52250967     0.84500
O2991       O  0.55419684  0.52779024  0.52400315    -0.66100
Ni2992     Ni  0.94558925  0.51313036  0.52863903     1.27400
Ni2993     Ni  0.98288717  0.99476570  0.98223714     1.26100
H2994       H  0.52674980  0.52412031  0.97823998     0.39000
O2995       O  0.51623242  0.49880342  0.69776384    -0.74500
O2996       O  0.53641368  0.99397025  0.78161906    -0.74500
O2997       O  0.52629742  0.95243173  0.74149175    -0.74500
O2998       O  0.52682737  0.54029170  0.73712851    -0.74600
O2999       O  0.97803298  0.54152513  0.76169947    -0.74500
O3000       O  0.97771135  0.95412322  0.76182240    -0.74500
O3001       O  0.98729973  0.99627211  0.80085692    -0.74500
O3002       O  0.96806427  0.50045918  0.72160156    -0.74500
Ni3003     Ni  0.52943737  0.49642131  0.73440816     1.25400
Ni3004     Ni  0.97534544  0.99786106  0.76349516     1.25400
C3005       C  0.98905057  0.50153959  0.69807671     0.87700
C3006       C  0.01508440  0.99574724  0.80283204     0.87700
C3007       C  0.00233446  0.93972444  0.75067153     0.87700
C3008       C  0.00181121  0.55665871  0.75084394     0.87900
O3009       O  0.70420594  0.53664237  0.00850227    -0.74500
O3010       O  0.78949905  0.53475709  0.98100453    -0.74500
O3011       O  0.74281933  0.53552853  0.95199933    -0.74500
O3012       O  0.76193790  0.53709111  0.53459830    -0.74600
O3013       O  0.75655747  0.98894969  0.53583208    -0.74500
O3014       O  0.74428840  0.98358124  0.95113060    -0.74500
O3015       O  0.79676205  0.98244132  0.48112994    -0.74500
O3016       O  0.71172262  0.99544471  0.50520647    -0.74500
Ni3017     Ni  0.74692285  0.53743057  0.99451800     1.25400
Ni3018     Ni  0.75394057  0.98707581  0.49315306     1.25400
C3019       C  0.69922569  0.52109763  0.51171988     0.87700
C3020       C  0.80340866  0.50920596  0.97704456     0.87700
C3021       C  0.74323066  0.51029938  0.93764244     0.87700
C3022       C  0.75888884  0.51243707  0.55060888     0.87900
O3023       O  0.49253476  0.70026571  0.98432548    -0.74500
O3024       O  0.49661966  0.78612161  0.97230698    -0.74500
O3025       O  0.53765333  0.74205727  0.97997866    -0.74500
O3026       O  0.95123844  0.74563980  0.97618612    -0.74600
O3027       O  0.95075110  0.75880857  0.51988009    -0.74500
O3028       O  0.53651065  0.75433597  0.52535071    -0.74500
O3029       O  0.99672627  0.79886122  0.51642884    -0.74500
O3030       O  0.99078991  0.71356409  0.52710451    -0.74500
Ni3031     Ni  0.49494210  0.74297445  0.97658016     1.25400
Ni3032     Ni  0.99349719  0.75647537  0.52321455     1.25400
C3033       C  0.48554136  0.68954178  0.01091810     0.87700
C3034       C  0.49100104  0.80338823  0.99510375     0.87700
C3035       C  0.54590970  0.74584800  0.00496112     0.87700
C3036       C  0.93054276  0.74969420  0.00005489     0.87900
O3037       O  0.96461639  0.74832713  0.79330186    -0.74500
O3038       O  0.54762354  0.74263871  0.75598216    -0.74500
O3039       O  0.00691898  0.79083005  0.77472538    -0.74500
O3040       O  0.00534007  0.70315535  0.77331019    -0.74600
O3041       O  0.49710096  0.70331009  0.72502232    -0.74500
O3042       O  0.49843135  0.79109901  0.72722574    -0.74500
O3043       O  0.53993638  0.74578882  0.70949454    -0.74500
O3044       O  0.95335091  0.74958835  0.74812486    -0.74500
Ni3045     Ni  0.00658991  0.74691102  0.77569622     1.25400
Ni3046     Ni  0.49737461  0.74729341  0.72441428     1.25400
C3047       C  0.94540546  0.74933578  0.77663566     0.87700
C3048       C  0.55759027  0.74323508  0.72769870     0.87700
C3049       C  0.00078935  0.80657988  0.75292263     0.87700
C3050       C  0.00036591  0.68973210  0.75015579     0.87900
O3051       O  0.83237980  0.74158746  0.73995834    -0.80900
O3052       O  0.70133786  0.75102353  0.71583238    -0.65600
O3053       O  0.77938388  0.76615500  0.72744029    -1.12200
C3054       C  0.73711784  0.77819729  0.82732412     1.06000
O3055       O  0.67219758  0.76943115  0.75767703    -0.78800
O3056       O  0.71372149  0.81316472  0.76093420    -0.66400
Ni3057     Ni  0.81036672  0.73830750  0.70863046     1.34900
C3058       C  0.73958091  0.82372557  0.76100354     0.84700
O3059       O  0.75262134  0.76299643  0.68023452    -0.79400
O3060       O  0.79240263  0.73184178  0.67436897    -0.89600
C3061       C  0.67599652  0.75691856  0.73230595     0.84300
O3062       O  0.79029906  0.70417591  0.72872930    -0.67800
O3063       O  0.71678297  0.79170015  0.81655399    -0.87100
C3064       C  0.76425792  0.69603492  0.72642266     0.85100
C3065       C  0.77089013  0.74455485  0.66458756     1.06700
H3066       H  0.72489982  0.73314859  0.77045218     0.38500
O3067       O  0.72918125  0.75400674  0.76437398    -1.09800
O3068       O  0.76029443  0.80775975  0.76941214    -0.66400
Ni3069     Ni  0.76798932  0.76399479  0.76965448     1.26300
O3070       O  0.74499447  0.71453450  0.71931433    -0.66700
O3071       O  0.75620229  0.76072514  0.81145276    -0.79000
C3072       C  0.83022075  0.75760549  0.76323653     0.84500
O3073       O  0.80696266  0.77301808  0.77454738    -0.66100
Ni3074     Ni  0.69708702  0.77972926  0.78492273     1.27400
Ni3075     Ni  0.74024546  0.75836844  0.72179334     1.26100
H3076       H  0.78507669  0.78646367  0.72061303     0.39000
O3077       O  0.74602513  0.74114703  0.95498895    -0.74500
O3078       O  0.74923110  0.71628745  0.53001797    -0.74500
O3079       O  0.70982089  0.72870833  0.49215828    -0.74500
O3080       O  0.79743069  0.73440181  0.48803063    -0.74600
O3081       O  0.77901877  0.77775543  0.00831279    -0.74500
O3082       O  0.69114123  0.77341660  0.01194447    -0.74500
O3083       O  0.74144001  0.76386038  0.54651224    -0.74500
O3084       O  0.74051895  0.78941022  0.96960025    -0.74500
Ni3085     Ni  0.75399560  0.72972778  0.48962099     1.25400
Ni3086     Ni  0.73481111  0.77746349  0.01051858     1.25400
C3087       C  0.74458408  0.76949065  0.94910059     0.87700
C3088       C  0.74517735  0.73552357  0.55112557     0.87700
C3089       C  0.69169012  0.75156286  0.50035618     0.87700
C3090       C  0.79660653  0.75440180  0.00052344     0.87900
O3091       O  0.72401540  0.55397580  0.74682169    -0.74500
O3092       O  0.72632208  0.96717031  0.74706605    -0.74500
O3093       O  0.72237677  0.01056255  0.79032792    -0.74500
O3094       O  0.72775929  0.50986340  0.70406259    -0.74600
O3095       O  0.77770394  0.51086973  0.69637345    -0.74500
O3096       O  0.77220743  0.01038415  0.78311896    -0.74500
O3097       O  0.77655635  0.96751798  0.73934208    -0.74500
O3098       O  0.77424482  0.55378322  0.74017198    -0.74500
Ni3099     Ni  0.72343879  0.01053250  0.74674959     1.25400
Ni3100     Ni  0.77671910  0.51057563  0.74022114     1.25400
C3101       C  0.74894327  0.56805255  0.74337341     0.87700
C3102       C  0.75175392  0.95307543  0.74406201     0.87700
C3103       C  0.74622911  0.01025508  0.80167592     0.87700
C3104       C  0.75358024  0.51027782  0.68538481     0.87900
C3105       C  0.74251525  0.61486401  0.71588153    -0.05800
C3106       C  0.74895692  0.60124404  0.74161675     0.00100
C3107       C  0.75800689  0.61904333  0.76345167    -0.08500
C3108       C  0.76173058  0.65029169  0.75801209    -0.05800
C3109       C  0.75655653  0.66386310  0.73164642     0.00100
C3110       C  0.74650995  0.64607018  0.71019739    -0.08400
C3111       C  0.74235378  0.65924170  0.68048030     0.62000
H3112       H  0.73578470  0.60047256  0.69954621     0.12700
H3113       H  0.76920892  0.66438324  0.77412767     0.12700
C3114       C  0.76314193  0.60509183  0.79248088     0.62200
F3115       F  0.73465587  0.63728923  0.66223595    -0.22900
F3116       F  0.76904046  0.67195249  0.66562458    -0.20200
F3117       F  0.71967040  0.68118129  0.68495855    -0.19900
F3118       F  0.78664904  0.58403909  0.78676862    -0.20000
F3119       F  0.73714133  0.59086033  0.80710573    -0.20300
F3120       F  0.77026358  0.62675926  0.81133631    -0.23000
C3121       C  0.76192724  0.87226143  0.77056602    -0.05800
C3122       C  0.74494972  0.85628854  0.75370449     0.00100
C3123       C  0.73227645  0.87208573  0.73193043    -0.08500
C3124       C  0.73590289  0.90364059  0.72896700    -0.05800
C3125       C  0.75201075  0.91965677  0.74648044     0.00100
C3126       C  0.76533701  0.90386992  0.76768631    -0.08400
C3127       C  0.78112512  0.92048659  0.78869394     0.62000
H3128       H  0.77135131  0.85993038  0.78715582     0.12700
H3129       H  0.72530414  0.91628169  0.71345525     0.12700
C3130       C  0.71495056  0.85608742  0.71182154     0.62200
F3131       F  0.79008435  0.90102039  0.80928381    -0.22900
F3132       F  0.76164147  0.94205854  0.80433141    -0.20200
F3133       F  0.80658517  0.93451109  0.77262250    -0.19900
F3134       F  0.68696187  0.84764148  0.72809648    -0.20000
F3135       F  0.73098528  0.83062879  0.69950008    -0.20300
F3136       F  0.71030708  0.87469524  0.68855295    -0.23000
C3137       C  0.73404800  0.73846847  0.63292731    -0.05800
C3138       C  0.76440927  0.73570278  0.63565044     0.00100
C3139       C  0.78658860  0.72466235  0.61120475    -0.08500
C3140       C  0.77768718  0.71947005  0.58416198    -0.05800
C3141       C  0.74817166  0.72618610  0.58088935     0.00100
C3142       C  0.72556755  0.73386636  0.60586310    -0.08400
C3143       C  0.69256993  0.73852299  0.60464910     0.62000
H3144       H  0.71663341  0.74517553  0.65196898     0.12700
H3145       H  0.79448368  0.71340353  0.56441663     0.12700
C3146       C  0.81968456  0.72052298  0.61261604     0.62200
F3147       F  0.67497377  0.72061537  0.62634400    -0.22900
F3148       F  0.68662017  0.73073759  0.57735586    -0.20200
F3149       F  0.68432652  0.76863250  0.61017064    -0.19900
F3150       F  0.82285261  0.69761555  0.63269482    -0.20000
F3151       F  0.83051029  0.74731122  0.62134512    -0.20300
F3152       F  0.83748983  0.71268563  0.58520775    -0.23000
C3153       C  0.76748915  0.77378237  0.86585327    -0.05800
C3154       C  0.73985214  0.78290539  0.85863314     0.00100
C3155       C  0.71587272  0.79375997  0.88166727    -0.08500
C3156       C  0.71943516  0.79139900  0.91133942    -0.05800
C3157       C  0.74572800  0.77873060  0.91824150     0.00100
C3158       C  0.77075205  0.77126038  0.89542147    -0.08400
C3159       C  0.80060939  0.76047115  0.90240722     0.62000
H3160       H  0.78633921  0.76716966  0.84817555     0.12700
H3161       H  0.70090949  0.79747675  0.92959551     0.12700
C3162       C  0.68632414  0.80660717  0.87561052     0.62200
F3163       F  0.82314163  0.75798746  0.87684399    -0.22900
F3164       F  0.79740633  0.73231328  0.91626226    -0.20200
F3165       F  0.80980206  0.78097823  0.92111060    -0.19900
F3166       F  0.67178800  0.78466254  0.86290320    -0.20000
F3167       F  0.69204308  0.83145923  0.85660902    -0.20300
F3168       F  0.66684420  0.81618802  0.90150418    -0.23000
C3169       C  0.63701647  0.76737177  0.70368434    -0.05800
C3170       C  0.64934254  0.74766927  0.72232333     0.00100
C3171       C  0.63403483  0.72134887  0.73447085    -0.08500
C3172       C  0.60440271  0.71800405  0.73126755    -0.05800
C3173       C  0.59014847  0.74057223  0.71714785     0.00100
C3174       C  0.60708091  0.76409572  0.70070720    -0.08400
C3175       C  0.59301838  0.78674605  0.68225151     0.62000
H3176       H  0.64998825  0.78669966  0.69374039     0.12700
H3177       H  0.59103692  0.69955683  0.74269840     0.12700
C3178       C  0.64830935  0.69798670  0.75217932     0.62200
F3179       F  0.61423373  0.80644825  0.66655533    -0.22900
F3180       F  0.57071963  0.80369243  0.70063471    -0.20200
F3181       F  0.58051604  0.77141921  0.66182010    -0.19900
F3182       F  0.65441766  0.71105517  0.77744432    -0.20000
F3183       F  0.67494974  0.68699866  0.73470746    -0.20300
F3184       F  0.62957500  0.67362318  0.76112171    -0.23000
C3185       C  0.90027476  0.78021711  0.78798128    -0.05800
C3186       C  0.91333399  0.75133418  0.78953367     0.00100
C3187       C  0.89575291  0.72518915  0.79055441    -0.08500
C3188       C  0.86710385  0.72846234  0.78418172    -0.05800
C3189       C  0.85585038  0.75707852  0.77776748     0.00100
C3190       C  0.87153658  0.78364261  0.78150274    -0.08400
C3191       C  0.85958500  0.81502149  0.77544584     0.62000
H3192       H  0.91438130  0.79985255  0.78755977     0.12700
H3193       H  0.85426341  0.70834764  0.78222746     0.12700
C3194       C  0.90754740  0.69345792  0.79522243     0.62200
F3195       F  0.87937832  0.83753475  0.77897711    -0.22900
F3196       F  0.83238603  0.82067329  0.79507658    -0.20200
F3197       F  0.85533508  0.81674304  0.74645579    -0.19900
F3198       F  0.93423175  0.69382700  0.80524492    -0.20000
F3199       F  0.91233774  0.67774428  0.76866890    -0.20300
F3200       F  0.88646514  0.67827493  0.81639095    -0.23000
C3201       C  0.88730106  0.77199400  0.51724618    -0.05800
C3202       C  0.89633341  0.75096317  0.99910485     0.00100
C3203       C  0.88349025  0.73702403  0.97667818    -0.08500
C3204       C  0.85153416  0.73902554  0.97803103    -0.05800
C3205       C  0.83092335  0.75480845  0.00049651     0.00100
C3206       C  0.85540381  0.77409967  0.51838303    -0.08400
C3207       C  0.83529484  0.79129520  0.54376401     0.62000
H3208       H  0.89629156  0.78211085  0.53481903     0.12700
H3209       H  0.84224971  0.72823640  0.96099567     0.12700
C3210       C  0.90316600  0.71924859  0.95144218     0.62200
F3211       F  0.85106227  0.80066057  0.56469878    -0.22900
F3212       F  0.81219180  0.77304787  0.55820128    -0.20200
F3213       F  0.82314317  0.81681950  0.53253888    -0.19900
F3214       F  0.88624326  0.70516895  0.93387610    -0.20000
F3215       F  0.91943500  0.69694586  0.96304345    -0.20300
F3216       F  0.92278020  0.73861899  0.93321268    -0.23000
C3217       C  0.61265298  0.73369942  0.48120999    -0.05800
C3218       C  0.59163521  0.75071397  0.50236756     0.00100
C3219       C  0.59206468  0.76387698  0.02690326    -0.08500
C3220       C  0.62401423  0.76375442  0.02581617    -0.05800
C3221       C  0.65728771  0.75020637  0.50042078     0.00100
C3222       C  0.64468831  0.73305940  0.47980145    -0.08400
C3223       C  0.66500156  0.71473702  0.45541934     0.62000
H3224       H  0.60363466  0.72048005  0.46551119     0.12700
H3225       H  0.63263228  0.77657311  0.04206946     0.12700
C3226       C  0.57141503  0.78329571  0.05006257     0.62200
F3227       F  0.64910676  0.70263619  0.43579205    -0.22900
F3228       F  0.67844206  0.69092250  0.46799580    -0.20200
F3229       F  0.68707125  0.73312682  0.43910824    -0.19900
F3230       F  0.55279320  0.76490515  0.07042138    -0.20000
F3231       F  0.55403822  0.80257489  0.03619397    -0.20300
F3232       F  0.58749879  0.80101397  0.06570769    -0.23000
C3233       C  0.77003198  0.50403173  0.84953659    -0.05800
C3234       C  0.74418937  0.00941745  0.83653066     0.00100
C3235       C  0.71716410  0.01477637  0.85910422    -0.08500
C3236       C  0.71809023  0.01495450  0.89047027    -0.05800
C3237       C  0.74437260  0.00806951  0.90154600     0.00100
C3238       C  0.77038633  0.50301501  0.88096627    -0.08400
C3239       C  0.79949126  0.49454961  0.89055221     0.62000
H3240       H  0.79070524  0.49909283  0.83345315     0.12700
H3241       H  0.69769231  0.01988614  0.90694944     0.12700
C3242       C  0.68684236  0.01970969  0.85053591     0.62200
F3243       F  0.82296430  0.48866835  0.86643008    -0.22900
F3244       F  0.79533307  0.46884875  0.90849114    -0.20200
F3245       F  0.80779752  0.51813512  0.90637443    -0.19900
F3246       F  0.67990428  0.99428837  0.83611646    -0.20000
F3247       F  0.68782180  0.04481751  0.83197169    -0.20300
F3248       F  0.66367765  0.02448934  0.87520742    -0.23000
C3249       C  0.74366855  0.99122159  0.60250344    -0.05800
C3250       C  0.75883424  0.51251815  0.58502874     0.00100
C3251       C  0.77324490  0.53460547  0.59988164    -0.08500
C3252       C  0.77179838  0.53263083  0.63172254    -0.05800
C3253       C  0.75540106  0.51022533  0.65071526     0.00100
C3254       C  0.74114477  0.98977206  0.63440119    -0.08400
C3255       C  0.72356072  0.96423126  0.65208287     0.62000
H3256       H  0.73234316  0.97448703  0.59198417     0.12700
H3257       H  0.78291766  0.54949449  0.64231018     0.12700
C3258       C  0.79030536  0.56053747  0.58225602     0.62200
F3259       F  0.71289338  0.94419223  0.63391633    -0.22900
F3260       F  0.69898480  0.97592862  0.67223342    -0.20200
F3261       F  0.74218831  0.94817410  0.66727903    -0.19900
F3262       F  0.77020126  0.57975485  0.57190140    -0.20000
F3263       F  0.81147524  0.54928472  0.55834770    -0.20300
F3264       F  0.80542232  0.57745196  0.59948891    -0.23000
C3265       C  0.50911284  0.85506254  0.72475214    -0.05800
C3266       C  0.00095112  0.84085226  0.75338706     0.00100
C3267       C  0.99443771  0.85827319  0.78010523    -0.08500
C3268       C  0.99558227  0.89034143  0.77805819    -0.05800
C3269       C  0.00242887  0.90576777  0.75055277     0.00100
C3270       C  0.50885249  0.88719144  0.72359329    -0.08400
C3271       C  0.51364380  0.90348107  0.69366482     0.62000
H3272       H  0.51447679  0.84243904  0.70415028     0.12700
H3273       H  0.99111682  0.90383816  0.79814597     0.12700
C3274       C  0.98517343  0.84355535  0.81077338     0.62200
F3275       F  0.51779020  0.88343220  0.67008440    -0.22900
F3276       F  0.53886567  0.92142931  0.68983732    -0.20200
F3277       F  0.98720754  0.92338359  0.69323785    -0.19900
F3278       F  0.50867098  0.82423384  0.81654446    -0.20000
F3279       F  0.96131752  0.82432577  0.81122400    -0.20300
F3280       F  0.97589191  0.86485073  0.83294449    -0.23000
C3281       C  0.48520447  0.63792999  0.77222394    -0.05800
C3282       C  0.00069572  0.65563317  0.74934547     0.00100
C3283       C  0.01397603  0.63864323  0.72352100    -0.08500
C3284       C  0.01425233  0.60654534  0.72529772    -0.05400
C3285       C  0.00067325  0.59071228  0.75139216     0.00100
C3286       C  0.48463138  0.60585377  0.77397888    -0.08400
C3287       C  0.46658398  0.59079028  0.80199170     0.62000
H3288       H  0.47254249  0.65125033  0.79052928     0.12700
H3289       H  0.02450751  0.59338586  0.70586251     0.12700
C3290       C  0.02831953  0.65409961  0.69424106     0.62200
F3291       F  0.45582219  0.61163849  0.82424215    -0.22900
F3292       F  0.48455983  0.56984836  0.81316126    -0.20200
F3293       F  0.94441066  0.57931418  0.80108138    -0.19900
F3294       F  0.55705692  0.67197970  0.70515665    -0.20000
F3295       F  0.00627828  0.66906334  0.68251455    -0.20300
F3296       F  0.04285083  0.63349879  0.67319661    -0.23000
C3297       C  0.52278634  0.84624978  0.97561391    -0.05800
C3298       C  0.49465383  0.83614659  0.99103399     0.00100
C3299       C  0.98621387  0.86398536  0.49615121    -0.08500
C3300       C  0.99348369  0.89475557  0.49382745    -0.05800
C3301       C  0.50684599  0.89850474  0.98674006     0.00100
C3302       C  0.52951346  0.87721015  0.97316884    -0.08400
C3303       C  0.56056968  0.88662254  0.95595787     0.62000
H3304       H  0.53989272  0.82944125  0.96634275     0.12700
H3305       H  0.97578620  0.91176788  0.50039017     0.12700
C3306       C  0.95378992  0.85454193  0.50817802     0.62200
F3307       F  0.57699059  0.86237006  0.94137265    -0.22900
F3308       F  0.57694537  0.89817520  0.97539341    -0.20200
F3309       F  0.55763514  0.90829723  0.93458561    -0.19900
F3310       F  0.95172609  0.83921291  0.53503101    -0.20000
F3311       F  0.94458876  0.83577811  0.48799003    -0.20300
F3312       F  0.93412132  0.87930868  0.51306812    -0.23000
C3313       C  0.47666608  0.64737033  0.49196663    -0.05800
C3314       C  0.99130306  0.66319325  0.50915183     0.00100
C3315       C  0.00537400  0.63664641  0.00057196    -0.08500
C3316       C  0.00129578  0.60562785  0.00741833    -0.05800
C3317       C  0.98324229  0.60019429  0.51510211     0.00100
C3318       C  0.47206358  0.61592808  0.49428131    -0.08400
C3319       C  0.45733705  0.59997979  0.47206204     0.62000
H3320       H  0.46946364  0.66026860  0.47435628     0.12700
H3321       H  0.01691690  0.58918496  0.99489465     0.12700
C3322       C  0.03252475  0.64644403  0.97697812     0.62200
F3323       F  0.45058375  0.61982984  0.45063416    -0.22900
F3324       F  0.43071293  0.58701753  0.48690273    -0.20200
F3325       F  0.47660326  0.57752247  0.45765275    -0.19900
F3326       F  0.04787342  0.66881918  0.98819007    -0.20000
F3327       F  0.02304569  0.65742340  0.95203276    -0.20300
F3328       F  0.05265881  0.62256444  0.96810427    -0.23000
C3329       C  0.88559814  0.53020062  0.96103323    -0.05800
C3330       C  0.89770971  0.50222380  0.96787258     0.00100
C3331       C  0.89023358  0.97057549  0.47309406    -0.08500
C3332       C  0.85931358  0.97365336  0.47354723    -0.05800
C3333       C  0.83655066  0.50760692  0.96745687     0.00100
C3334       C  0.85496191  0.53358182  0.96059323    -0.08400
C3335       C  0.84286269  0.56513582  0.95506237     0.62000
H3336       H  0.89975652  0.54999169  0.95889367     0.12700
H3337       H  0.84447665  0.95521095  0.48229334     0.12700
C3338       C  0.90281172  0.94165153  0.48465716     0.62200
F3339       F  0.82776253  0.57757687  0.98175218    -0.22900
F3340       F  0.82355769  0.56383506  0.93551158    -0.20200
F3341       F  0.86596532  0.58444258  0.94245121    -0.19900
F3342       F  0.91471611  0.94792358  0.50927692    -0.20000
F3343       F  0.92532987  0.92946063  0.46250821    -0.20300
F3344       F  0.88080840  0.92001278  0.49306224    -0.23000
C3345       C  0.64069627  0.53751065  0.02087939    -0.05800
C3346       C  0.66894584  0.02755447  0.52077917     0.00100
C3347       C  0.65217071  0.01000133  0.54448029    -0.08500
C3348       C  0.62078462  0.00979883  0.54793350    -0.05800
C3349       C  0.60664770  0.02725295  0.52905096     0.00100
C3350       C  0.60926901  0.53634010  0.02475253    -0.08400
C3351       C  0.59163764  0.56308961  0.01531628     0.62000
H3352       H  0.65235718  0.55748042  0.01075525     0.12700
H3353       H  0.60745831  0.99390774  0.56332969     0.12700
C3354       C  0.66707744  0.99176495  0.56590903     0.62200
F3355       F  0.60966259  0.58810522  0.00723437    -0.22900
F3356       F  0.56836612  0.57135236  0.03878083    -0.20200
F3357       F  0.57970939  0.55522922  0.99113338    -0.19900
F3358       F  0.68664753  0.01010016  0.57670939    -0.20000
F3359       F  0.68284825  0.96706146  0.55172972    -0.20300
F3360       F  0.64596510  0.98106539  0.59009256    -0.23000
C3361       C  0.54365163  0.00410314  0.87614083    -0.05800
C3362       C  0.02497725  0.98811780  0.89280242     0.00100
C3363       C  0.00692241  0.96756485  0.88117441    -0.08500
C3364       C  0.00563839  0.97017593  0.85110754    -0.05800
C3365       C  0.02189864  0.99229310  0.83255604     0.00100
C3366       C  0.54291592  0.00652558  0.84564058    -0.08400
C3367       C  0.56271588  0.53307158  0.81755449     0.62000
H3368       H  0.55840736  0.01833584  0.88554179     0.12700
H3369       H  0.99113706  0.95540589  0.84192826     0.12700
C3370       C  0.98884782  0.94314210  0.90038009     0.62200
F3371       F  0.57782878  0.55144629  0.83357441    -0.22900
F3372       F  0.54319464  0.55125916  0.80530270    -0.20200
F3373       F  0.58327693  0.01334559  0.80384163    -0.19900
F3374       F  0.96613110  0.95638163  0.92144579    -0.20000
F3375       F  0.00763125  0.92598987  0.91451429    -0.20300
F3376       F  0.97553870  0.92370846  0.88368420    -0.23000
C3377       C  0.49609095  0.47856524  0.64686344    -0.05800
C3378       C  0.48054273  0.49972142  0.66726269     0.00100
C3379       C  0.95967215  0.01696524  0.66197484    -0.08500
C3380       C  0.96034873  0.52558636  0.62931654    -0.05800
C3381       C  0.47545065  0.50193825  0.60757332     0.00100
C3382       C  0.49361429  0.47896499  0.61707978    -0.08400
C3383       C  0.51061199  0.45512480  0.59589715     0.62000
H3384       H  0.51121209  0.46227809  0.65424283     0.12700
H3385       H  0.94244756  0.03175471  0.62348510     0.12700
C3386       C  0.93864770  0.03781610  0.68336981     0.62200
F3387       F  0.52209022  0.43190346  0.61114183    -0.22900
F3388       F  0.53455006  0.46816804  0.57628874    -0.20200
F3389       F  0.49134853  0.44241046  0.57993404    -0.19900
F3390       F  0.96481380  0.56342116  0.69407483    -0.20000
F3391       F  0.91988877  0.02071268  0.70487608    -0.20300
F3392       F  0.92057666  0.05562048  0.66887514    -0.23000
loop_ 
_geom_bond_atom_site_label_1 
_geom_bond_atom_site_label_2 
_geom_bond_distance 
_geom_bond_site_symmetry_2 
_ccdc_geom_bond_type 
O1           Ni7   1.923       .  S
O1          C446   1.271       .  A
O2          Ni25   1.894       .  S
O2          C859   1.260       .  A
O3           H26   0.969       .  S
O3         Ni855   1.904   1_545  S
O3        Ni2569   1.893   1_445  S
O3         Ni443   1.904       .  S
C4           O21   1.276   1_565  A
C4         O1709   1.276       .  A
C4          C413   1.461       .  S
O5          Ni24   1.919       .  S
O5          C435   1.270   1_544  A
O6          Ni24   1.911       .  S
O6            C8   1.266       .  A
Ni7          O10   1.932       .  S
Ni7          O12   1.899       .  S
Ni7         O851   1.905       .  S
C8         O1714   1.266       .  A
C8          C349   1.475       .  S
O9          Ni25   1.884       .  S
O9           C15   1.268       .  A
O10        C1711   1.275       .  A
C11         O850   1.261       .  A
C11         O429   1.268   1_565  A
C11         C362   1.452       .  S
O12          C14   1.264       .  A
O13         Ni24   1.914       .  S
O13        C1700   1.274       .  A
C14        O1716   1.269       .  A
C14         C333   1.471       .  S
C15        O1706   1.275       .  A
C15         C394   1.455       .  S
H16          O17   0.966       .  S
O17        Ni449   1.906   1_554  S
O17       Ni2563   1.879       .  S
O17        Ni872   1.901       .  S
O18         Ni19   1.907   1_655  S
O18        C1704   1.266       .  A
Ni19         O23   1.886       .  S
Ni19         O21   1.908   1_455  S
Ni19        O427   1.910   1_554  S
Ni19       O2561   1.876   1_445  S
O20         Ni25   1.920       .  S
O20        C1710   1.269       .  A
C22         O425   1.267       .  A
C22         O871   1.258       .  A
C22         C381   1.445       .  S
O23         C870   1.260       .  A
Ni24        O865   1.900   1_545  S
Ni25       O2547   1.895       .  S
Ni25        O441   1.900       .  S
O27         Ni35   1.899       .  S
O27        C1733   1.280   1_455  A
O28        Ni883   1.903       .  S
O28        C1734   1.276       .  A
O29        Ni883   1.941       .  S
O29        C1735   1.285       .  A
O30         Ni35   1.936   1_545  S
O30        C1736   1.286   1_455  A
O31        Ni884   1.936   1_545  S
O31          C40   1.283       .  A
O32         Ni36   1.929       .  S
O32          C39   1.284       .  A
O33         Ni36   1.904       .  S
O33          C38   1.280       .  A
O34        Ni884   1.904       .  S
O34          C37   1.277       .  A
Ni35        O876   1.900       .  S
Ni35        O877   1.939       .  S
Ni35      Ni2580   2.387   1_455  S
Ni36        O879   1.933       .  S
Ni36        O882   1.913       .  S
Ni36      Ni2579   2.386       .  S
C37        O1723   1.278       .  A
C37        C2106   1.454       .  S
C38        O1724   1.276       .  A
C38         C397   1.461       .  S
C39        O1725   1.284       .  A
C39         C301   1.502       .  S
C40        O1726   1.287       .  A
C40         C317   1.515       .  S
O41         Ni49   1.889       .  S
O41         C475   1.274       .  A
O42         Ni49   1.890       .  S
O42          C52   1.273       .  A
O43         Ni49   1.999       .  S
O43          C53   1.298       .  A
O44        Ni473   1.996   1_554  S
O44          C54   1.296       .  A
O45         Ni50   1.997   1_554  S
O45         C902   1.297       .  A
O46        Ni474   1.991       .  S
O46         C901   1.295       .  A
O47         Ni50   1.887       .  S
O47        C1324   1.278       .  A
O48         Ni50   1.890   1_554  S
O48         C899   1.275       .  A
Ni49        O468   1.995       .  S
Ni49      Ni1322   2.373   1_545  S
Ni50        O470   1.992       .  S
Ni50      Ni1321   2.371       .  S
C51         O465   1.279       .  A
C51         O896   1.274   1_545  A
C51        C1226   1.468       .  S
C52        O1319   1.281   1_545  A
C52         C365   1.473   1_545  S
C53         O894   1.294   1_545  A
C53        C1117   1.573       .  S
C54         O893   1.298   1_545  A
C54         C282   1.581       .  S
O55         Ni63   1.911   1_655  S
O55          C65   1.280       .  A
O56         Ni63   1.910       .  S
O56          C66   1.280   1_455  A
O57         Ni63   1.973       .  S
O57          C67   1.292       .  A
O58       Ni1759   1.974       .  S
O58          C68   1.292       .  A
O59         Ni64   1.974       .  S
O59         C492   1.292       .  A
O60       Ni1760   1.980   1_455  S
O60         C491   1.294       .  A
O61         Ni64   1.904       .  S
O61        C2186   1.277   1_554  A
O62         Ni64   1.917       .  S
O62        C2185   1.282       .  A
Ni63       O1754   1.971   1_455  S
Ni63      Ni2184   2.377   1_455  S
Ni64       O1756   1.974       .  S
Ni64      Ni2183   2.374   1_554  S
C65        O2182   1.277       .  A
C65        C2466   1.466       .  S
C66        O2181   1.275       .  A
C66         C330   1.460   1_655  S
C67         O484   1.294       .  A
C67         C674   1.557       .  S
C68         O483   1.294       .  A
C68         C234   1.558       .  S
O69         Ni77   1.892       .  S
O69          C79   1.273       .  A
O70       Ni1773   1.889       .  S
O70          C80   1.278       .  A
O71         Ni77   1.942       .  S
O71          C81   1.286       .  A
O72         Ni77   1.941       .  S
O72          C82   1.286       .  A
O73         Ni78   1.930       .  S
O73        C1778   1.282       .  A
O74         Ni78   1.933       .  S
O74        C1777   1.284       .  A
O75         Ni78   1.909       .  S
O75          C80   1.278       .  A
O76       Ni1774   1.901       .  S
O76          C79   1.280       .  A
Ni77       O1766   1.888       .  S
Ni77      Ni1774   2.388       .  S
Ni78       O1772   1.900   1_455  S
Ni78      Ni1773   2.386       .  S
C79         C218   1.445       .  S
C80         C205   1.464       .  S
C81        O1770   1.284       .  A
C81         C298   1.510       .  S
C82        O1769   1.282       .  A
C82         C314   1.500       .  S
O83         Ni89   1.920       .  S
O83         C104   1.273       .  A
O84        Ni107   1.877       .  S
O84          C93   1.258       .  A
O85         H108   0.966       .  S
O85         Ni89   1.910       .  S
O85        Ni107   1.877       .  S
O85        Ni101   1.897       .  S
C86         O103   1.263       .  A
C86          O95   1.264       .  A
C86         C186   1.474       .  S
O87        Ni106   1.907       .  S
O87          C93   1.267       .  A
O88        Ni106   1.903       .  S
O88          C90   1.273       .  A
Ni89         O92   1.948       .  S
Ni89         O94   1.894       .  S
C90         O100   1.284       .  A
C90         C154   1.487       .  S
O91        Ni107   1.873       .  S
O91          C97   1.263       .  A
O92          C97   1.275       .  A
C93         C202   1.449       .  S
O94          C96   1.266       .  A
O95        Ni106   1.925       .  S
C96         O102   1.270       .  A
C96         C141   1.477       .  S
C97         C170   1.480       .  S
H98          O99   0.968       .  S
O99        Ni107   1.916       .  S
O99        Ni101   1.884       .  S
O99        Ni106   1.910       .  S
O100       Ni101   1.947       .  S
Ni101       O105   1.877       .  S
Ni101       O103   1.893       .  S
O102       Ni107   1.937       .  S
C104        O105   1.260       .  A
C104        C221   1.445       .  S
O109       Ni541   1.897       .  S
O109        C119   1.277       .  A
O110       Ni117   1.905   1_554  S
O110        C120   1.277       .  A
O111       Ni117   1.974   1_554  S
O111        C121   1.292       .  A
O112       Ni117   1.965       .  S
O112        C546   1.291   1_556  A
O113       Ni118   1.979       .  S
O113        C122   1.293       .  A
O114       Ni118   1.975       .  S
O114        C545   1.293       .  A
O115       Ni542   1.891       .  S
O115        C120   1.276       .  A
O116       Ni118   1.903       .  S
O116        C119   1.276       .  A
Ni117       O533   1.896       .  S
Ni117      Ni542   2.380   1_556  S
Ni118       O539   1.894       .  S
Ni118      Ni541   2.381       .  S
C119        C189   1.449       .  S
C120        C173   1.452       .  S
C121        O538   1.295       .  A
C121        C253   1.558       .  S
C122        O536   1.292       .  A
C122        C237   1.555       .  S
O123       Ni979   1.912       .  S
O123        C133   1.280       .  A
O124       Ni131   1.921       .  S
O124        C134   1.281       .  A
O125       Ni131   1.992       .  S
O125        C135   1.296       .  A
O126       Ni979   1.990       .  S
O126        C136   1.295       .  A
O127       Ni132   2.002       .  S
O127        C136   1.298       .  A
O128       Ni980   1.996       .  S
O128        C135   1.297       .  A
O129       Ni980   1.905       .  S
O129        C134   1.277       .  A
O130       Ni132   1.900       .  S
O130        C133   1.275       .  A
Ni131       O971   1.918       .  S
Ni131       O974   1.992       .  S
Ni131      Ni980   2.372       .  S
Ni132       O976   1.998       .  S
Ni132       O977   1.902   1_545  S
Ni132      Ni979   2.373       .  S
C133        C138   1.467       .  S
C134        C157   1.477       .  S
C135        C266   1.578       .  S
C136        C285   1.580       .  S
C137        C138   1.399       .  A
C137        C142   1.402       .  A
C137        H144   1.083       .  S
C138        C139   1.416       .  A
C139        C140   1.402       .  A
C139        C146   1.521       .  S
C140        C141   1.405       .  A
C140        H145   1.083       .  S
C141        C142   1.422       .  A
C142        C143   1.521       .  S
C143        F147   1.385       .  S
C143        F148   1.381       .  S
C143        F149   1.381       .  S
C146        F150   1.382       .  S
C146        F151   1.381       .  S
C146        F152   1.385       .  S
C153        C154   1.405       .  A
C153        C158   1.400       .  A
C153        H160   1.082       .  S
C154        C155   1.423       .  A
C155        C156   1.410       .  A
C155        C162   1.520       .  S
C156        C157   1.403       .  A
C156        H161   1.083       .  S
C157        C158   1.417       .  A
C158        C159   1.521       .  S
C159        F163   1.385       .  S
C159        F164   1.381       .  S
C159        F165   1.382       .  S
C162        F166   1.383       .  S
C162        F167   1.384       .  S
C162        F168   1.385       .  S
C169        C170   1.412       .  A
C169        C174   1.395       .  A
C169        H176   1.083       .  S
C170        C171   1.420       .  A
C171        C172   1.405       .  A
C171        C178   1.520       .  S
C172        C173   1.402       .  A
C172        H177   1.084       .  S
C173        C174   1.401       .  A
C174        C175   1.516       .  S
C175        F179   1.382       .  S
C175        F180   1.383       .  S
C175        F181   1.382       .  S
C178        F182   1.383       .  S
C178        F183   1.383       .  S
C178        F184   1.385       .  S
C185        C186   1.407       .  A
C185        C190   1.397       .  A
C185        H192   1.085       .  S
C186        C187   1.424       .  A
C187        C188   1.400       .  A
C187        C194   1.523       .  S
C188        C189   1.397       .  A
C188        H193   1.084       .  S
C189        C190   1.408       .  A
C190        C191   1.518       .  S
C191        F195   1.384       .  S
C191        F196   1.383       .  S
C191        F197   1.383       .  S
C194        F198   1.384       .  S
C194        F199   1.383       .  S
C194        F200   1.385       .  S
C201        C202   1.396       .  A
C201        C206   1.401       .  A
C201        H208   1.084       .  S
C202        C203   1.412       .  A
C203        C204   1.395       .  A
C203        C210   1.522       .  S
C204        C205   1.402       .  A
C204        H209   1.084       .  S
C205        C206   1.419       .  A
C206        C207   1.517       .  S
C207        F211   1.384       .  S
C207        F212   1.380       .  S
C207        F213   1.383       .  S
C210        F214   1.382       .  S
C210        F215   1.382       .  S
C210        F216   1.385       .  S
C217        C218   1.401       .  A
C217        C222   1.394       .  A
C217        H224   1.084       .  S
C218        C219   1.406       .  A
C219        C220   1.399       .  A
C219        C226   1.516       .  S
C220        C221   1.404       .  A
C220        H225   1.084       .  S
C221        C222   1.404       .  A
C222        C223   1.515       .  S
C223        F227   1.385       .  S
C223        F228   1.383       .  S
C223        F229   1.383       .  S
C226        F230   1.383       .  S
C226        F231   1.383       .  S
C226        F232   1.385       .  S
C233        C238   1.438       .  A
C233        C658   1.416       .  A
C233        H240   1.082       .  S
C234        C235   1.434       .  A
C234        C657   1.417       .  A
C235        C236   1.434       .  A
C235        C242   1.516       .  S
C236        C237   1.413       .  A
C236        H241   1.082       .  S
C237        C662   1.434       .  A
C238        C661   1.434       .  A
C238        C239   1.518       .  S
C239        F243   1.385       .  S
C239        F244   1.382       .  S
C239        F245   1.383       .  S
C242        F246   1.385       .  S
C242        F247   1.379       .  S
C242        F248   1.382       .  S
C249        C250   1.418   1_556  A
C249        C254   1.439       .  A
C249        H256   1.082       .  S
C250        C491   1.563       .  S
C250        C675   1.435       .  A
C251        C252   1.438       .  A
C251        C674   1.433       .  A
C251        C258   1.518       .  S
C252        C677   1.416       .  A
C252        H257   1.082       .  S
C253        C254   1.434   1_554  A
C253        C676   1.415       .  A
C254        C255   1.519       .  S
C255        F259   1.385       .  S
C255        F260   1.382       .  S
C255        F261   1.383       .  S
C258        F262   1.382       .  S
C258        F263   1.384       .  S
C258        F264   1.384       .  S
C265        C270   1.446       .  A
C265       C1114   1.420   1_565  A
C265        H272   1.082       .  S
C266        C267   1.439       .  A
C266       C1113   1.420       .  A
C267        C268   1.448       .  A
C267        C274   1.517       .  S
C268        C269   1.419       .  A
C268        H273   1.082       .  S
C269        C901   1.573       .  S
C269       C1118   1.435       .  A
C270       C1117   1.435   1_565  A
C270        C271   1.517       .  S
C271        F275   1.385       .  S
C271        F276   1.382       .  S
C271        F277   1.382       .  S
C274        F278   1.382       .  S
C274        F279   1.382       .  S
C274        F280   1.385       .  S
C281        C286   1.446       .  A
C281       C1130   1.421       .  A
C281        H288   1.079       .  S
C282        C283   1.437       .  A
C282       C1129   1.419   1_545  A
C283        C284   1.450       .  A
C283        C290   1.516       .  S
C284        C285   1.422       .  A
C284        H289   1.082       .  S
C285       C1134   1.437   1_545  A
C286       C1133   1.435       .  A
C286        C287   1.517       .  S
C287        F291   1.385       .  S
C287        F292   1.382       .  S
C287        F293   1.383       .  S
C290        F294   1.382       .  S
C290        F295   1.383       .  S
C290        F296   1.384       .  S
C297        C302   1.419       .  A
C297       C1994   1.413       .  A
C297        H304   1.081       .  S
C298        C299   1.425       .  A
C298       C1993   1.412       .  A
C299        C300   1.414       .  A
C299        C306   1.520       .  S
C300        C301   1.406       .  A
C300        H305   1.083       .  S
C301       C1998   1.420       .  A
C302       C1997   1.420       .  A
C302        C303   1.519       .  S
C303        F307   1.385       .  S
C303        F308   1.382       .  S
C303       F2005   1.384       .  S
C306        F311   1.382       .  S
C306        F312   1.385       .  S
C306       F2006   1.382       .  S
F309       C1999   1.384       .  S
F310       C2002   1.383   1_455  S
C313        C318   1.419       .  A
C313       C2010   1.407       .  A
C313        H320   1.083       .  S
C314        C315   1.420       .  A
C314       C2009   1.404       .  A
C315        C316   1.412       .  A
C315        C322   1.520       .  S
C316        C317   1.409       .  A
C316        H321   1.082       .  S
C317       C2014   1.430       .  A
C318       C2013   1.427       .  A
C318        C319   1.520       .  S
C319        F323   1.385       .  S
C319        F324   1.383       .  S
C319       F2021   1.383       .  S
C322        F327   1.382       .  S
C322        F328   1.385       .  S
C322       F2022   1.383       .  S
F325       C2015   1.383       .  S
F326       C2018   1.383       .  S
C329        C330   1.400       .  A
C329        C334   1.402       .  A
C329        H336   1.084       .  S
C330       C2451   1.411   1_455  A
C331        C332   1.402       .  A
C331       C2450   1.408       .  A
C331        C338   1.518   1_556  S
C332       C2453   1.409       .  A
C332        H337   1.083       .  S
C333        C334   1.420       .  A
C333       C2452   1.406   1_455  A
C334        C335   1.522       .  S
C335        F339   1.385       .  S
C335        F340   1.383       .  S
C335        F341   1.382       .  S
C338        F342   1.383       .  S
C338        F343   1.384   1_554  S
C338        F344   1.384       .  S
C345        C350   1.411       .  A
C345       C2042   1.407       .  A
C345        H352   1.083       .  S
C346       C2185   1.490       .  S
C346       C2041   1.409       .  A
C346        C771   1.425   1_554  A
C347        C348   1.404       .  A
C347        C770   1.415       .  A
C347        C354   1.519       .  S
C348        C773   1.403       .  A
C348        H353   1.084       .  S
C349        C772   1.400       .  A
C349       C2046   1.413       .  A
C350       C2045   1.419       .  A
C350        C351   1.519       .  S
C351        F355   1.385       .  S
C351        F356   1.384       .  S
C351        F357   1.382       .  S
C354        F358   1.382       .  S
C354        F359   1.384       .  S
C354        F360   1.384       .  S
C361        C362   1.395   1_545  A
C361        C366   1.397       .  A
C361        H368   1.084       .  S
C362       C1635   1.410       .  A
C363        C364   1.392       .  A
C363       C1634   1.408       .  A
C363        C370   1.522       .  S
C364       C1637   1.407       .  A
C364        H369   1.082       .  S
C365        C366   1.424   1_565  A
C365       C1636   1.406       .  A
C366        C367   1.521       .  S
C367        F371   1.383       .  S
C367        F372   1.383       .  S
C367        F373   1.385       .  S
C370        F374   1.384   1_556  S
C370        F375   1.381       .  S
C370        F376   1.385       .  S
C377        C382   1.394       .  A
C377       C1650   1.400       .  A
C377        H384   1.084       .  S
C378        C899   1.464       .  S
C378        C379   1.420       .  A
C378       C1649   1.403       .  A
C379        C380   1.394       .  A
C379        C386   1.519       .  S
C380        C381   1.395       .  A
C380        H385   1.084       .  S
C381       C1654   1.410       .  A
C382       C1653   1.409       .  A
C382        C383   1.518       .  S
C383        F387   1.384       .  S
C383        F388   1.383       .  S
C383        F389   1.383       .  S
C386        F390   1.381       .  S
C386        F391   1.383       .  S
C386        F392   1.385       .  S
C393        C398   1.402       .  A
C393       C2090   1.397       .  A
C393        H400   1.083       .  S
C394        C395   1.413       .  A
C394       C2089   1.398       .  A
C395        C396   1.397       .  A
C395        C402   1.518       .  S
C396        C397   1.399       .  A
C396        H401   1.084       .  S
C397       C2094   1.417       .  A
C398       C2093   1.419       .  A
C398       C1247   1.519       .  S
C399       C1246   1.518   1_545  S
C399        F403   1.385       .  S
C399        F404   1.382       .  S
C399       F1253   1.383   1_545  S
C402        F406   1.380       .  S
C402        F407   1.381       .  S
C402        F408   1.385       .  S
F405       C1247   1.383       .  S
C409        C410   1.400       .  A
C409        C414   1.395       .  A
C409        H416   1.084   1_655  S
C410       C1733   1.468       .  S
C410       C2955   1.419       .  A
C411       C2954   1.414       .  A
C411       C1260   1.398       .  A
C411        C418   1.517       .  S
C412       C1259   1.397       .  A
C412       C2109   1.395   1_545  A
C412       H1265   1.083       .  S
C413        C414   1.415       .  A
C413       C2108   1.400       .  A
C414        C415   1.522   1_655  S
C415        F419   1.385       .  S
C415        F420   1.382       .  S
C415        F421   1.384   1_455  S
H417       C1260   1.084       .  S
C418        F423   1.383       .  S
C418        F424   1.385       .  S
C418       F1270   1.382       .  S
F422       C1266   1.381       .  S
O425       Ni431   1.917   1_554  S
O426       Ni449   1.878       .  S
O426       C1283   1.257       .  A
O427        H450   0.966       .  S
O427      Ni1279   1.896   1_545  S
O427      Ni2993   1.880   1_445  S
C428        O445   1.272   1_655  A
C428       O2133   1.275       .  A
C428        C837   1.457   1_545  S
O429       Ni448   1.913       .  S
O430       Ni448   1.911       .  S
O430        C432   1.266       .  A
Ni431       O434   1.935       .  S
Ni431       O436   1.891       .  S
Ni431      O1275   1.899       .  S
C432       O2138   1.264       .  A
C432        C773   1.467       .  S
O433       Ni449   1.887       .  S
O433        C439   1.268       .  A
O434       C2135   1.278       .  A
C435       O1274   1.254       .  A
C435        C786   1.442       .  S
O436        C438   1.261       .  A
O437       Ni448   1.915       .  S
O437       C2124   1.276       .  A
C438       O2140   1.269   1_455  A
C438        C757   1.483       .  S
C439       O2130   1.277       .  A
C439        C818   1.463       .  S
H440        O441   0.966       .  S
O441      Ni2987   1.877       .  S
O441      Ni1296   1.899       .  S
O442       Ni443   1.905       .  S
O442       C2128   1.265   1_455  A
Ni443       O447   1.878       .  S
Ni443       O445   1.900       .  S
Ni443      O2985   1.878   1_445  S
O444       Ni449   1.920       .  S
O444       C2134   1.268       .  A
C446       O1295   1.260       .  A
C446        C805   1.450       .  S
O447       C1294   1.259       .  A
Ni448      O1289   1.899   1_545  S
Ni449      O2971   1.887       .  S
O451       Ni459   1.897       .  S
O451       C2157   1.279   1_455  A
O452      Ni1307   1.911       .  S
O452       C2158   1.277       .  A
O453      Ni1307   1.943       .  S
O453       C2159   1.286       .  A
O454       Ni459   1.939   1_545  S
O454       C2160   1.286       .  A
O455      Ni1308   1.933   1_545  S
O455        C464   1.283       .  A
O456       Ni460   1.933       .  S
O456        C463   1.283       .  A
O457       Ni460   1.905       .  S
O457        C462   1.280       .  A
O458      Ni1308   1.908       .  S
O458        C461   1.277       .  A
Ni459      O1300   1.907       .  S
Ni459      O1301   1.941       .  S
Ni459     Ni3004   2.387   1_455  S
Ni460      O1303   1.931       .  S
Ni460      O1306   1.909       .  S
Ni460     Ni3003   2.387       .  S
C461       O2147   1.280       .  A
C461       C2530   1.466       .  S
C462       O2148   1.278       .  A
C462        C821   1.467       .  S
C463       O2149   1.285       .  A
C463        C725   1.498       .  S
C464       O2150   1.285       .  A
C464        C741   1.501       .  S
O465       Ni473   1.904   1_554  S
O466       Ni473   1.895       .  S
O466        C476   1.275       .  A
O467       Ni473   1.997       .  S
O467        C477   1.297       .  A
O468        C478   1.297       .  A
O469       Ni474   1.991       .  S
O469       C1326   1.296       .  A
O470       C1325   1.295       .  A
O471       Ni474   1.907       .  S
O471        C900   1.280       .  A
O472       Ni474   1.906       .  S
O472       C1323   1.280       .  A
Ni473      Ni898   2.371   1_545  S
Ni474      Ni897   2.372       .  S
C475       O1320   1.279   1_545  A
C475       C1650   1.457       .  S
C476        O895   1.276   1_545  A
C476        C789   1.466       .  S
C477       O1318   1.296   1_545  A
C477       C1541   1.572       .  S
C478       O1317   1.295   1_545  A
C478        C706   1.577       .  S
O479       Ni487   1.912       .  S
O479        C489   1.279   1_556  A
O480       Ni487   1.907       .  S
O480        C490   1.278       .  A
O481       Ni487   1.976   1_455  S
O481        C491   1.292   1_556  A
O482      Ni2183   1.972       .  S
O482        C492   1.292   1_556  A
O483       Ni488   1.979       .  S
O484      Ni2184   1.978   1_455  S
O485       Ni488   1.903       .  S
O485       C1762   1.276       .  A
O486       Ni488   1.910       .  S
O486       C1761   1.278       .  A
Ni487      O2178   1.972       .  S
Ni487     Ni1760   2.374   1_556  S
Ni488      O2180   1.977       .  S
Ni488     Ni1759   2.377       .  S
C489       O1758   1.281       .  A
C489       C2042   1.485       .  S
C490       O1757   1.277   1_556  A
C490        C754   1.461       .  S
C492        C658   1.553       .  S
O493       Ni501   1.899       .  S
O493        C503   1.274       .  A
O494      Ni2197   1.889       .  S
O494        C504   1.279       .  A
O495       Ni501   1.935       .  S
O495        C505   1.284       .  A
O496       Ni501   1.933       .  S
O496        C506   1.284       .  A
O497       Ni502   1.935       .  S
O497       C2202   1.284       .  A
O498       Ni502   1.938       .  S
O498       C2201   1.286   1_655  A
O499       Ni502   1.905   1_455  S
O499        C504   1.275       .  A
O500      Ni2198   1.901       .  S
O500        C503   1.279       .  A
Ni501      O2190   1.890       .  S
Ni501     Ni2198   2.387       .  S
Ni502      O2196   1.902       .  S
Ni502     Ni2197   2.387   1_655  S
C503        C642   1.448       .  S
C504        C629   1.453       .  S
C505       O2194   1.286       .  A
C505        C722   1.518       .  S
C506       O2193   1.285       .  A
C506        C738   1.502       .  S
O507       Ni513   1.919       .  S
O507        C528   1.273       .  A
O508       Ni531   1.873       .  S
O508        C517   1.255       .  A
O509        H532   0.966       .  S
O509       Ni513   1.909       .  S
O509       Ni531   1.881       .  S
O509       Ni525   1.895       .  S
C510        O527   1.262       .  A
C510        O519   1.266       .  A
C510        C610   1.473       .  S
O511       Ni530   1.914       .  S
O511        C517   1.269       .  A
O512       Ni530   1.897       .  S
O512        C514   1.271       .  A
Ni513       O516   1.943       .  S
Ni513       O518   1.896       .  S
C514        O524   1.281       .  A
C514        C578   1.479       .  S
O515       Ni531   1.871       .  S
O515        C521   1.260       .  A
O516        C521   1.273       .  A
C517        C626   1.446       .  S
O518        C520   1.266       .  A
O519       Ni530   1.932       .  S
C520        O526   1.273       .  A
C520        C565   1.474       .  S
C521        C594   1.469       .  S
H522        O523   0.968       .  S
O523       Ni531   1.914       .  S
O523       Ni525   1.889       .  S
O523       Ni530   1.915       .  S
O524       Ni525   1.949       .  S
Ni525       O529   1.883       .  S
Ni525       O527   1.881       .  S
O526       Ni531   1.946       .  S
C528        O529   1.262       .  A
C528        C645   1.453       .  S
O533        C543   1.277       .  A
O534       Ni541   1.904       .  S
O534        C544   1.276       .  A
O535       Ni541   1.978       .  S
O535        C545   1.293       .  A
O536       Ni541   1.968       .  S
O537       Ni542   1.983       .  S
O537        C546   1.295       .  A
O538       Ni542   1.982       .  S
O539        C544   1.277       .  A
O540       Ni542   1.900   1_556  S
O540        C543   1.275       .  A
C543        C613   1.448       .  S
C544        C597   1.449       .  S
C545        C677   1.558       .  S
C546        C661   1.555       .  S
O547      Ni1403   1.915       .  S
O547        C557   1.278       .  A
O548       Ni555   1.910       .  S
O548        C558   1.279       .  A
O549       Ni555   1.991       .  S
O549        C559   1.296       .  A
O550      Ni1403   1.991       .  S
O550        C560   1.296       .  A
O551       Ni556   1.998       .  S
O551        C560   1.297       .  A
O552      Ni1404   1.995       .  S
O552        C559   1.297       .  A
O553      Ni1404   1.914       .  S
O553        C558   1.279       .  A
O554       Ni556   1.913       .  S
O554        C557   1.279       .  A
Ni555      O1395   1.913       .  S
Ni555      O1398   1.990       .  S
Ni555     Ni1404   2.373       .  S
Ni556      O1400   1.992       .  S
Ni556      O1401   1.917   1_545  S
Ni556     Ni1403   2.373       .  S
C557        C562   1.469       .  S
C558        C581   1.472       .  S
C559        C690   1.584       .  S
C560        C709   1.575       .  S
C561        C562   1.400       .  A
C561        C566   1.406       .  A
C561        H568   1.083       .  S
C562        C563   1.413       .  A
C563        C564   1.403       .  A
C563        C570   1.517       .  S
C564        C565   1.403       .  A
C564        H569   1.083       .  S
C565        C566   1.421       .  A
C566        C567   1.520       .  S
C567        F571   1.385       .  S
C567        F572   1.381       .  S
C567        F573   1.381       .  S
C570        F574   1.382       .  S
C570        F575   1.381       .  S
C570        F576   1.384       .  S
C577        C578   1.405       .  A
C577        C582   1.404       .  A
C577        H584   1.083       .  S
C578        C579   1.419       .  A
C579        C580   1.404       .  A
C579        C586   1.520       .  S
C580        C581   1.401       .  A
C580        H585   1.082       .  S
C581        C582   1.416       .  A
C582        C583   1.520       .  S
C583        F587   1.385       .  S
C583        F588   1.382       .  S
C583        F589   1.382       .  S
C586        F590   1.383       .  S
C586        F591   1.383       .  S
C586        F592   1.385       .  S
C593        C594   1.409       .  A
C593        C598   1.393       .  A
C593        H600   1.084       .  S
C594        C595   1.414       .  A
C595        C596   1.403       .  A
C595        C602   1.520       .  S
C596        C597   1.403       .  A
C596        H601   1.084       .  S
C597        C598   1.405       .  A
C598        C599   1.517       .  S
C599        F603   1.384       .  S
C599        F604   1.383       .  S
C599        F605   1.383       .  S
C602        F606   1.382       .  S
C602        F607   1.384       .  S
C602        F608   1.385       .  S
C609        C610   1.408       .  A
C609        C614   1.395       .  A
C609        H616   1.083       .  S
C610        C611   1.422       .  A
C611        C612   1.401       .  A
C611        C618   1.521       .  S
C612        C613   1.397       .  A
C612        H617   1.084       .  S
C613        C614   1.405       .  A
C614        C615   1.519       .  S
C615        F619   1.385       .  S
C615        F620   1.382       .  S
C615        F621   1.383       .  S
C618        F622   1.383       .  S
C618        F623   1.383       .  S
C618        F624   1.385       .  S
C625        C626   1.399       .  A
C625        C630   1.401       .  A
C625        H632   1.084       .  S
C626        C627   1.409       .  A
C627        C628   1.393       .  A
C627        C634   1.519       .  S
C628        C629   1.400       .  A
C628        H633   1.084       .  S
C629        C630   1.412       .  A
C630        C631   1.515       .  S
C631        F635   1.385       .  S
C631        F636   1.383       .  S
C631        F637   1.383       .  S
C634        F638   1.383       .  S
C634        F639   1.381       .  S
C634        F640   1.385       .  S
C641        C642   1.399       .  A
C641        C646   1.399       .  A
C641        H648   1.084       .  S
C642        C643   1.409       .  A
C643        C644   1.397       .  A
C643        C650   1.517       .  S
C644        C645   1.401       .  A
C644        H649   1.084       .  S
C645        C646   1.411       .  A
C646        C647   1.518       .  S
C647        F651   1.385       .  S
C647        F652   1.383       .  S
C647        F653   1.383       .  S
C650        F654   1.383       .  S
C650        F655   1.383       .  S
C650        F656   1.385       .  S
C657        C662   1.439       .  A
C657        H664   1.082       .  S
C658        C659   1.431   1_554  A
C659        C660   1.434       .  A
C659        C666   1.518       .  S
C660        C661   1.416   1_556  A
C660        H665   1.082       .  S
C662        C663   1.518       .  S
C663        F667   1.384       .  S
C663        F668   1.382       .  S
C663        F669   1.383       .  S
C666        F670   1.385       .  S
C666        F671   1.383       .  S
C666        F672   1.383       .  S
C673        C674   1.416       .  A
C673        C678   1.438       .  A
C673        H680   1.082       .  S
C675        C676   1.439       .  A
C675        C682   1.517       .  S
C676        H681   1.082       .  S
C677        C678   1.434       .  A
C678        C679   1.518       .  S
C679        F683   1.385       .  S
C679        F684   1.382       .  S
C679        F685   1.383       .  S
C682        F686   1.382       .  S
C682        F687   1.384       .  S
C682        F688   1.384       .  S
C689       C1538   1.421   1_565  A
C689        C694   1.444       .  A
C689        H696   1.082       .  S
C690       C1537   1.421       .  A
C690        C691   1.443       .  A
C691        C692   1.449       .  A
C691        C698   1.517       .  S
C692        C693   1.417       .  A
C692        H697   1.082       .  S
C693       C1325   1.573       .  S
C693       C1542   1.433       .  A
C694       C1541   1.433   1_565  A
C694        C695   1.515       .  S
C695        F699   1.385       .  S
C695        F700   1.382       .  S
C695        F701   1.379   1_565  S
C698        F702   1.384       .  S
C698        F703   1.382       .  S
C698        F704   1.384       .  S
C705       C1554   1.421       .  A
C705        C710   1.444       .  A
C705        H712   1.082       .  S
C706       C1553   1.420   1_545  A
C706        C707   1.438       .  A
C707        C708   1.449       .  A
C707        C714   1.516       .  S
C708        C709   1.420       .  A
C708        H713   1.082       .  S
C709       C1558   1.434   1_545  A
C710       C1557   1.432       .  A
C710        C711   1.515       .  S
C711        F715   1.384       .  S
C711        F716   1.382       .  S
C711        F717   1.382       .  S
C714        F718   1.383       .  S
C714        F719   1.384       .  S
C714        F720   1.384       .  S
C721       C2418   1.413       .  A
C721        C726   1.417       .  A
C721        H728   1.082       .  S
C722       C2417   1.414       .  A
C722        C723   1.431       .  A
C723        C724   1.416       .  A
C723        C730   1.519       .  S
C724        C725   1.400       .  A
C724        H729   1.083       .  S
C725       C2422   1.416       .  A
C726       C2421   1.416       .  A
C726        C727   1.516       .  S
C727        F731   1.385       .  S
C727        F732   1.382       .  S
C727       F2429   1.383   1_455  S
C730       F2430   1.383       .  S
C730        F735   1.383       .  S
C730        F736   1.385       .  S
F733       C2423   1.383       .  S
F734       C2426   1.383   1_455  S
C737       C2434   1.406       .  A
C737        C742   1.416       .  A
C737        H744   1.083       .  S
C738       C2433   1.407       .  A
C738        C739   1.422       .  A
C739        C740   1.414       .  A
C739        C746   1.519       .  S
C740        C741   1.406       .  A
C740        H745   1.083       .  S
C741       C2438   1.423       .  A
C742       C2437   1.423       .  A
C742        C743   1.520       .  S
C743        F747   1.385       .  S
C743        F748   1.382       .  S
C743       F2445   1.382       .  S
C746       F2446   1.383       .  S
C746        F751   1.382       .  S
C746        F752   1.385       .  S
F749       C2439   1.382       .  S
F750       C2442   1.383       .  S
C753        C754   1.397   1_455  A
C753        C758   1.402       .  A
C753        H760   1.084       .  S
C754       C2027   1.409   1_556  A
C755       C2026   1.409       .  A
C755        C756   1.401       .  A
C755        C762   1.519       .  S
C756       C2029   1.407       .  A
C756        H761   1.083       .  S
C757       C2028   1.410   1_455  A
C757        C758   1.426       .  A
C758        C759   1.523       .  S
C759        F763   1.385       .  S
C759        F764   1.384       .  S
C759        F765   1.383       .  S
C762        F766   1.382       .  S
C762        F767   1.384       .  S
C762        F768   1.384       .  S
C769       C2466   1.400       .  A
C769        C774   1.402       .  A
C769        H776   1.079       .  S
C770       C1761   1.470       .  S
C770       C2465   1.401       .  A
C771        C772   1.404   1_556  A
C771        C778   1.522       .  S
C772        H777   1.083   1_554  S
C773       C2470   1.414       .  A
C774       C2469   1.416       .  A
C774        C775   1.520       .  S
C775        F779   1.385       .  S
C775        F780   1.382       .  S
C775        F781   1.383       .  S
C778        F782   1.384       .  S
C778        F783   1.383       .  S
C778        F784   1.385       .  S
C785        C786   1.396   1_545  A
C785        C790   1.393       .  A
C785        H792   1.085       .  S
C786       C1211   1.410       .  A
C787       C1210   1.410       .  A
C787        C788   1.400       .  A
C787        C794   1.519       .  S
C788       C1213   1.407       .  A
C788        H793   1.083       .  S
C789       C1212   1.407   1_545  A
C789        C790   1.419       .  A
C790        C791   1.518       .  S
C791        F795   1.383       .  S
C791        F796   1.382       .  S
C791        F797   1.385       .  S
C794        F798   1.384       .  S
C794        F799   1.383       .  S
C794        F800   1.385       .  S
C801       C1226   1.405       .  A
C801        C806   1.399       .  A
C801        H808   1.083       .  S
C802       C1323   1.463       .  S
C802       C1225   1.402       .  A
C802        C803   1.415       .  A
C803        C804   1.396       .  A
C803        C810   1.515       .  S
C804        C805   1.398       .  A
C804        H809   1.085       .  S
C805       C1230   1.411       .  A
C806       C1229   1.410       .  A
C806        C807   1.519       .  S
C807        F811   1.384       .  S
C807        F812   1.383       .  S
C807        F813   1.383   1_554  S
C810        F814   1.383       .  S
C810        F815   1.382       .  S
C810        F816   1.385       .  S
C817       C2514   1.401       .  A
C817        C822   1.408       .  A
C817        H824   1.083       .  S
C818       C2513   1.401       .  A
C818        C819   1.414       .  A
C819        C820   1.397       .  A
C819        C826   1.518       .  S
C820        C821   1.400       .  A
C820        H825   1.084       .  S
C821       C2518   1.417       .  A
C822       C2517   1.417       .  A
C822       C1671   1.518       .  S
C823       C1670   1.518       .  S
C823        F827   1.385       .  S
C823        F828   1.382       .  S
C823       F1677   1.382       .  S
C826        F830   1.380       .  S
C826        F831   1.382       .  S
C826        F832   1.385       .  S
F829       C1671   1.382       .  S
C833        C834   1.401   1_455  A
C833        C838   1.394   1_455  A
C833        H840   1.082       .  S
C834       C2157   1.466       .  S
C834       C3379   1.417   1_565  A
C835       C3378   1.417       .  A
C835       C1684   1.406       .  A
C835        C842   1.518       .  S
C836       C1683   1.405       .  A
C836       C2533   1.400       .  A
C836       H1689   1.083       .  S
C837       C2532   1.401   1_565  A
C837        C838   1.413       .  A
C838        C839   1.522   1_655  S
C839        F843   1.385       .  S
C839        F844   1.382       .  S
C839        F845   1.384       .  S
H841       C1684   1.083       .  S
C842       F1694   1.383       .  S
C842        F847   1.382       .  S
C842        F848   1.385       .  S
F846       C1690   1.383       .  S
O849       Ni855   1.921       .  S
O849       C1294   1.270   1_565  A
O850       Ni873   1.895       .  S
O851        H874   0.969       .  S
O851      Ni1721   1.897   1_455  S
O851      Ni1291   1.905       .  S
C852        O869   1.275       .  A
C852       O2557   1.276       .  A
C852       C1261   1.461       .  S
O853       Ni872   1.913   1_556  S
O853       C1283   1.266       .  A
O854       Ni872   1.906       .  S
O854        C856   1.264       .  A
Ni855       O858   1.936       .  S
Ni855       O860   1.896       .  S
C856       O2562   1.265       .  A
C856       C1197   1.483       .  S
O857       Ni873   1.890       .  S
O857        C863   1.272       .  A
O858       C2559   1.275       .  A
C859       O1277   1.267       .  A
C859       C1210   1.451       .  S
O860        C862   1.263       .  A
O861       Ni872   1.917       .  S
O861       C2548   1.275       .  A
C862       O2564   1.269       .  A
C862       C1181   1.472       .  S
C863       O2554   1.277       .  A
C863       C1242   1.455       .  S
H864        O865   0.966       .  S
O865      Ni1297   1.900   1_554  S
O865      Ni1715   1.881   1_565  S
O866       Ni867   1.910   1_655  S
O866       C2552   1.266       .  A
Ni867       O871   1.880       .  S
Ni867       O869   1.910   1_455  S
Ni867      O1275   1.911   1_554  S
Ni867      O1713   1.880   1_455  S
O868       Ni873   1.915       .  S
O868       C2558   1.267       .  A
C870       O1273   1.268   1_545  A
C870       C1229   1.447       .  S
Ni873      O1699   1.888   1_565  S
Ni873      O1289   1.905       .  S
O875       Ni883   1.905       .  S
O875       C2581   1.278   1_455  A
O876       C2582   1.275       .  A
O877       C2583   1.284       .  A
O878       Ni883   1.938       .  S
O878       C2584   1.288       .  A
O879        C888   1.282       .  A
O880       Ni884   1.935       .  S
O880        C887   1.285       .  A
O881       Ni884   1.893       .  S
O881        C886   1.279       .  A
O882        C885   1.279       .  A
Ni883     Ni1732   2.385   1_455  S
Ni884     Ni1731   2.386       .  S
C885       O2571   1.278       .  A
C885       C2954   1.459       .  S
C886       O2572   1.276       .  A
C886       C1245   1.457       .  S
C887       O2573   1.284       .  A
C887       C1149   1.507       .  S
C888       O2574   1.287       .  A
C888       C1165   1.515       .  S
O889       Ni897   1.893       .  S
O889       C1323   1.275       .  A
O890       Ni897   1.892       .  S
O890        C900   1.274       .  A
O891       Ni897   1.998       .  S
O891        C901   1.297       .  A
O892      Ni1321   1.997   1_554  S
O892        C902   1.297       .  A
O893       Ni898   2.003   1_554  S
O894      Ni1322   1.988       .  S
O895       Ni898   1.884       .  S
O896       Ni898   1.889   1_554  S
Ni897      O1316   1.993       .  S
Ni898      O1318   1.993       .  S
C899       O1313   1.277       .  A
C900       C1213   1.474       .  S
C902       C1130   1.580       .  S
O903       Ni911   1.916       .  S
O903        C913   1.281   1_455  A
O904       Ni911   1.913       .  S
O904        C914   1.280       .  A
O905       Ni911   1.975       .  S
O905        C915   1.292       .  A
O906      Ni2607   1.968       .  S
O906        C916   1.290       .  A
O907       Ni912   1.974       .  S
O907       C1340   1.292       .  A
O908      Ni2608   1.977   1_455  S
O908       C1339   1.293       .  A
O909       Ni912   1.898       .  S
O909       C3034   1.276   1_554  A
O910       Ni912   1.908       .  S
O910       C3033   1.279       .  A
Ni911      O2602   1.970   1_455  S
Ni911     Ni3032   2.376   1_455  S
Ni912      O2604   1.975       .  S
Ni912     Ni3031   2.377   1_554  S
C913       O3030   1.276       .  A
C913       C3314   1.475       .  S
C914       O3029   1.274   1_455  A
C914       C1178   1.456       .  S
C915       O1332   1.294       .  A
C915       C1522   1.559       .  S
C916       O1331   1.294       .  A
C916       C1082   1.556       .  S
O917       Ni925   1.898       .  S
O917        C927   1.274       .  A
O918      Ni2621   1.896       .  S
O918        C928   1.279       .  A
O919       Ni925   1.938       .  S
O919        C929   1.285       .  A
O920       Ni925   1.939       .  S
O920        C930   1.285       .  A
O921       Ni926   1.925       .  S
O921       C2626   1.281       .  A
O922       Ni926   1.928       .  S
O922       C2625   1.284       .  A
O923       Ni926   1.904       .  S
O923        C928   1.276       .  A
O924      Ni2622   1.897       .  S
O924        C927   1.279       .  A
Ni925      O2614   1.893       .  S
Ni925     Ni2622   2.387       .  S
Ni926      O2620   1.898   1_455  S
Ni926     Ni2621   2.387       .  S
C927       C1066   1.446       .  S
C928       C1053   1.465       .  S
C929       O2618   1.285       .  A
C929       C1146   1.512       .  S
C930       O2617   1.283       .  A
C930       C1162   1.499       .  S
O931       Ni937   1.924       .  S
O931        C952   1.274       .  A
O932       Ni955   1.882       .  S
O932        C941   1.259       .  A
O933        H956   0.966       .  S
O933       Ni937   1.909       .  S
O933       Ni955   1.885       .  S
O933       Ni949   1.895       .  S
C934        O951   1.264       .  A
C934        O943   1.261       .  A
C934       C1034   1.463       .  S
O935       Ni954   1.900       .  S
O935        C941   1.265       .  A
O936       Ni954   1.899       .  S
O936        C938   1.272       .  A
Ni937       O940   1.946       .  S
Ni937       O942   1.895       .  S
C938        O948   1.284       .  A
C938       C1002   1.475       .  S
O939       Ni955   1.874       .  S
O939        C945   1.264       .  A
O940        C945   1.275       .  A
C941       C1050   1.448       .  S
O942        C944   1.265       .  A
O943       Ni954   1.915       .  S
C944        O950   1.269       .  A
C944        C989   1.478       .  S
C945       C1018   1.484       .  S
H946        O947   0.968       .  S
O947       Ni955   1.916       .  S
O947       Ni949   1.889       .  S
O947       Ni954   1.909       .  S
O948       Ni949   1.948       .  S
Ni949       O953   1.883       .  S
Ni949       O951   1.895       .  S
O950       Ni955   1.934       .  S
C952        O953   1.261       .  A
C952       C1069   1.456       .  S
O957      Ni1389   1.894       .  S
O957        C967   1.277       .  A
O958       Ni965   1.909   1_554  S
O958        C968   1.278       .  A
O959       Ni965   1.972       .  S
O959        C969   1.292   1_556  A
O960       Ni965   1.968       .  S
O960       C1394   1.291       .  A
O961       Ni966   1.975       .  S
O961        C970   1.293       .  A
O962       Ni966   1.976       .  S
O962       C1393   1.293       .  A
O963      Ni1390   1.896       .  S
O963        C968   1.277       .  A
O964       Ni966   1.897       .  S
O964        C967   1.274       .  A
Ni965      O1381   1.902       .  S
Ni965     Ni1390   2.380   1_556  S
Ni966      O1387   1.892       .  S
Ni966     Ni1389   2.381       .  S
C967       C1037   1.443       .  S
C968       C1021   1.455       .  S
C969       O1386   1.293       .  A
C969       C1101   1.553       .  S
C970       O1384   1.291       .  A
C970       C1085   1.550       .  S
O971        C981   1.281       .  A
O972       Ni979   1.918   1_565  S
O972        C982   1.280       .  A
O973       Ni979   1.989       .  S
O973        C983   1.295       .  A
O974        C984   1.296       .  A
O975       Ni980   1.997       .  S
O975        C984   1.297       .  A
O976        C983   1.298       .  A
O977        C982   1.276       .  A
O978       Ni980   1.903       .  S
O978        C981   1.276       .  A
C981        C986   1.472       .  S
C982       C1005   1.468       .  S
C983       C1114   1.578       .  S
C984       C1133   1.575       .  S
C985        C986   1.400       .  A
C985        C990   1.404       .  A
C985        H992   1.083       .  S
C986        C987   1.418       .  A
C987        C988   1.404       .  A
C987        C994   1.521       .  S
C988        C989   1.404       .  A
C988        H993   1.083       .  S
C989        C990   1.421       .  A
C990        C991   1.521       .  S
C991        F995   1.384       .  S
C991        F996   1.381       .  S
C991        F997   1.381       .  S
C994        F998   1.382       .  S
C994        F999   1.382       .  S
C994       F1000   1.385       .  S
C1001      C1002   1.404       .  A
C1001      C1006   1.399       .  A
C1001      H1008   1.083       .  S
C1002      C1003   1.419       .  A
C1003      C1004   1.407       .  A
C1003      C1010   1.519       .  S
C1004      C1005   1.401       .  A
C1004      H1009   1.082       .  S
C1005      C1006   1.415       .  A
C1006      C1007   1.521       .  S
C1007      F1011   1.385       .  S
C1007      F1012   1.382       .  S
C1007      F1013   1.381       .  S
C1010      F1014   1.382       .  S
C1010      F1015   1.384       .  S
C1010      F1016   1.385       .  S
C1017      C1018   1.414       .  A
C1017      C1022   1.397       .  A
C1017      H1024   1.083       .  S
C1018      C1019   1.422       .  A
C1019      C1020   1.404       .  A
C1019      C1026   1.520       .  S
C1020      C1021   1.400       .  A
C1020      H1025   1.084       .  S
C1021      C1022   1.404       .  A
C1022      C1023   1.518       .  S
C1023      F1027   1.385       .  S
C1023      F1028   1.383       .  S
C1023      F1029   1.382       .  S
C1026      F1030   1.383       .  S
C1026      F1031   1.383       .  S
C1026      F1032   1.385       .  S
C1033      C1034   1.404       .  A
C1033      C1038   1.395       .  A
C1033      H1040   1.085       .  S
C1034      C1035   1.422       .  A
C1035      C1036   1.396       .  A
C1035      C1042   1.524       .  S
C1036      C1037   1.395       .  A
C1036      H1041   1.084       .  S
C1037      C1038   1.408       .  A
C1038      C1039   1.516       .  S
C1039      F1043   1.384       .  S
C1039      F1044   1.383       .  S
C1039      F1045   1.383       .  S
C1042      F1046   1.384       .  S
C1042      F1047   1.383       .  S
C1042      F1048   1.385       .  S
C1049      C1050   1.395       .  A
C1049      C1054   1.401       .  A
C1049      H1056   1.084       .  S
C1050      C1051   1.411       .  A
C1051      C1052   1.395       .  A
C1051      C1058   1.522       .  S
C1052      C1053   1.402       .  A
C1052      H1057   1.084       .  S
C1053      C1054   1.421       .  A
C1054      C1055   1.518       .  S
C1055      F1059   1.385       .  S
C1055      F1060   1.382       .  S
C1055      F1061   1.383       .  S
C1058      F1062   1.383       .  S
C1058      F1063   1.383       .  S
C1058      F1064   1.385       .  S
C1065      C1066   1.401       .  A
C1065      C1070   1.399       .  A
C1065      H1072   1.083       .  S
C1066      C1067   1.404       .  A
C1067      C1068   1.397       .  A
C1067      C1074   1.517       .  S
C1068      C1069   1.405       .  A
C1068      H1073   1.084       .  S
C1069      C1070   1.409       .  A
C1070      C1071   1.515       .  S
C1071      F1075   1.385       .  S
C1071      F1076   1.383       .  S
C1071      F1077   1.383       .  S
C1074      F1078   1.383       .  S
C1074      F1079   1.383       .  S
C1074      F1080   1.385       .  S
C1081      C1506   1.416   1_554  A
C1081      C1086   1.437       .  A
C1081      H1088   1.082       .  S
C1082      C1505   1.417       .  A
C1082      C1083   1.436       .  A
C1083      C1084   1.435       .  A
C1083      C1090   1.519       .  S
C1084      C1085   1.413       .  A
C1084      H1089   1.082       .  S
C1085      C1510   1.431       .  A
C1086      C1509   1.434   1_554  A
C1086      C1087   1.517       .  S
C1087      F1091   1.385       .  S
C1087      F1092   1.382       .  S
C1087      F1093   1.382       .  S
C1090      F1094   1.385       .  S
C1090      F1095   1.383       .  S
C1090      F1096   1.383       .  S
C1097      C1098   1.418   1_556  A
C1097      C1102   1.437       .  A
C1097      H1104   1.082       .  S
C1098      C1339   1.560       .  S
C1098      C1523   1.435       .  A
C1099      C1522   1.432       .  A
C1099      C1100   1.438       .  A
C1099      C1106   1.517       .  S
C1100      C1525   1.417       .  A
C1100      H1105   1.082       .  S
C1101      C1524   1.414       .  A
C1101      C1102   1.432   1_554  A
C1102      C1103   1.518       .  S
C1103      F1107   1.384       .  S
C1103      F1108   1.382       .  S
C1103      F1109   1.382       .  S
C1106      F1110   1.382       .  S
C1106      F1111   1.384       .  S
C1106      F1112   1.384       .  S
C1113      C1118   1.445       .  A
C1113      H1120   1.081       .  S
C1114      C1115   1.440       .  A
C1115      C1116   1.447       .  A
C1115      C1122   1.518       .  S
C1116      C1117   1.418       .  A
C1116      H1121   1.082       .  S
C1118      C1119   1.517       .  S
C1119      F1123   1.385       .  S
C1119      F1124   1.382       .  S
C1119      F1125   1.382       .  S
C1122      F1126   1.382       .  S
C1122      F1127   1.382       .  S
C1122      F1128   1.385       .  S
C1129      C1134   1.445       .  A
C1129      H1136   1.076       .  S
C1130      C1131   1.437       .  A
C1131      C1132   1.448       .  A
C1131      C1138   1.516       .  S
C1132      C1133   1.419       .  A
C1132      H1137   1.082       .  S
C1134      C1135   1.517       .  S
C1135      F1139   1.385       .  S
C1135      F1140   1.383       .  S
C1135      F1141   1.382       .  S
C1138      F1142   1.382       .  S
C1138      F1143   1.384       .  S
C1138      F1144   1.385       .  S
C1145      C2842   1.411   1_655  A
C1145      C1150   1.414       .  A
C1145      H1152   1.083       .  S
C1146      C2841   1.411       .  A
C1146      C1147   1.426       .  A
C1147      C1148   1.416       .  A
C1147      C1154   1.520       .  S
C1148      C1149   1.406       .  A
C1148      H1153   1.083       .  S
C1149      C2846   1.422       .  A
C1150      C2845   1.415   1_655  A
C1150      C1151   1.518       .  S
C1151      F1155   1.384       .  S
C1151      F1156   1.383       .  S
C1151      F2853   1.382       .  S
C1154      F2854   1.383       .  S
C1154      F1159   1.382       .  S
C1154      F1160   1.384       .  S
F1157      C2847   1.383       .  S
F1158      C2850   1.384       .  S
C1161      C2858   1.403   1_655  A
C1161      C1166   1.420       .  A
C1161      H1168   1.083       .  S
C1162      C2857   1.405       .  A
C1162      C1163   1.418       .  A
C1163      C1164   1.411       .  A
C1163      C1170   1.519       .  S
C1164      C1165   1.409       .  A
C1164      H1169   1.082       .  S
C1165      C2862   1.431       .  A
C1166      C2861   1.432   1_655  A
C1166      C1167   1.520       .  S
C1167      F1171   1.385       .  S
C1167      F1172   1.384       .  S
C1167      F2869   1.383       .  S
C1170      F2870   1.383       .  S
C1170      F1175   1.382       .  S
C1170      F1176   1.385       .  S
F1173      C2863   1.383       .  S
F1174      C2866   1.383       .  S
C1177      C1178   1.398       .  A
C1177      C1182   1.401       .  A
C1177      H1184   1.084       .  S
C1178      C3299   1.410   1_455  A
C1179      C3298   1.411   1_554  A
C1179      C1180   1.402       .  A
C1179      C1186   1.520       .  S
C1180      C3301   1.408   1_554  A
C1180      H1185   1.083       .  S
C1181      C3300   1.406   1_455  A
C1181      C1182   1.421       .  A
C1182      C1183   1.521       .  S
C1183      F1187   1.385       .  S
C1183      F1188   1.383       .  S
C1183      F1189   1.383       .  S
C1186      F1190   1.382       .  S
C1186      F1191   1.384       .  S
C1186      F1192   1.384       .  S
C1193      C2890   1.405       .  A
C1193      C1198   1.408       .  A
C1193      H1200   1.083       .  S
C1194      C3033   1.473       .  S
C1194      C2889   1.403       .  A
C1194      C1619   1.414       .  A
C1195      C1618   1.421       .  A
C1195      C1196   1.406       .  A
C1195      C1202   1.520       .  S
C1196      C1621   1.400       .  A
C1196      H1201   1.084       .  S
C1197      C1620   1.408       .  A
C1197      C2894   1.421       .  A
C1198      C2893   1.421       .  A
C1198      C1199   1.520       .  S
C1199      F1203   1.385       .  S
C1199      F1204   1.384       .  S
C1199      F1205   1.383       .  S
C1202      F1206   1.383       .  S
C1202      F1207   1.384       .  S
C1202      F1208   1.385       .  S
C1209      C1210   1.394       .  A
C1209      C1214   1.396       .  A
C1209      H1216   1.085       .  S
C1211      C1212   1.393       .  A
C1211      C1218   1.524       .  S
C1212      H1217   1.082       .  S
C1213      C1214   1.424       .  A
C1214      C1215   1.521       .  S
C1215      F1219   1.383       .  S
C1215      F1220   1.383       .  S
C1215      F1221   1.385       .  S
C1218      F1222   1.384   1_556  S
C1218      F1223   1.382       .  S
C1218      F1224   1.384       .  S
C1225      C1230   1.398       .  A
C1225      H1232   1.083       .  S
C1226      C1227   1.423   1_545  A
C1227      C1228   1.393       .  A
C1227      C1234   1.519       .  S
C1228      C1229   1.393   1_565  A
C1228      H1233   1.085       .  S
C1230      C1231   1.517       .  S
C1231      F1235   1.385       .  S
C1231      F1236   1.383       .  S
C1231      F1237   1.383       .  S
C1234      F1238   1.378       .  S
C1234      F1239   1.383       .  S
C1234      F1240   1.385       .  S
C1241      C2938   1.399       .  A
C1241      C1246   1.404       .  A
C1241      H1248   1.083   1_565  S
C1242      C2937   1.399       .  A
C1242      C1243   1.413       .  A
C1243      C1244   1.393       .  A
C1243      C1250   1.517       .  S
C1244      C1245   1.397       .  A
C1244      H1249   1.084       .  S
C1245      C2942   1.416       .  A
C1246      C2941   1.417       .  A
C1247      F1251   1.385       .  S
C1247      F1252   1.382       .  S
C1250      F1254   1.380       .  S
C1250      F1255   1.379       .  S
C1250      F1256   1.385       .  S
C1257      C1258   1.400       .  A
C1257      C1262   1.406       .  A
C1257      H1264   1.083       .  S
C1258      C2581   1.463       .  S
C1258      C2107   1.415       .  A
C1259      C2106   1.414   1_545  A
C1259      C1266   1.516       .  S
C1260      C2957   1.397       .  A
C1261      C2956   1.396       .  A
C1261      C1262   1.416       .  A
C1262      C1263   1.518       .  S
C1263      F1267   1.385       .  S
C1263      F1268   1.383       .  S
C1263      F1269   1.383       .  S
C1266      F1271   1.382       .  S
C1266      F1272   1.384       .  S
O1273     Ni1279   1.915   1_554  S
O1274     Ni1297   1.865       .  S
O1275      H1298   0.967       .  S
O1275     Ni2145   1.885   1_455  S
C1276      O1293   1.274   1_655  A
C1276      O2981   1.276       .  A
C1276      C1685   1.458       .  S
O1277     Ni1296   1.910       .  S
O1278     Ni1296   1.912       .  S
O1278      C1280   1.266       .  A
Ni1279     O1282   1.937       .  S
Ni1279     O1284   1.893       .  S
C1280      O2986   1.264       .  A
C1280      C1621   1.467       .  S
O1281     Ni1297   1.891       .  S
O1281      C1287   1.271       .  A
O1282      C2983   1.279       .  A
C1283      C1634   1.444       .  S
O1284      C1286   1.261       .  A
O1285     Ni1296   1.916       .  S
O1285      C2972   1.276       .  A
C1286      O2988   1.270   1_455  A
C1286      C1605   1.486       .  S
C1287      O2978   1.280       .  A
C1287      C1666   1.466       .  S
H1288      O1289   0.966       .  S
O1289     Ni2139   1.881   1_565  S
O1290     Ni1291   1.906       .  S
O1290      C2976   1.265   1_455  A
Ni1291     O1295   1.883       .  S
Ni1291     O1293   1.906       .  S
Ni1291     O2137   1.878   1_455  S
O1292     Ni1297   1.911       .  S
O1292      C2982   1.266       .  A
C1294      C1653   1.443       .  S
Ni1297     O2123   1.875   1_565  S
O1299     Ni1307   1.899       .  S
O1299      C3005   1.279   1_455  A
O1300      C3006   1.277       .  A
O1301      C3007   1.286       .  A
O1302     Ni1307   1.938       .  S
O1302      C3008   1.286       .  A
O1303      C1312   1.282       .  A
O1304     Ni1308   1.935       .  S
O1304      C1311   1.284       .  A
O1305     Ni1308   1.902       .  S
O1305      C1310   1.281       .  A
O1306      C1309   1.277       .  A
Ni1307    Ni2156   2.388   1_455  S
Ni1308    Ni2155   2.387       .  S
C1309      O2995   1.279       .  A
C1309      C3378   1.463       .  S
C1310      O2996   1.277       .  A
C1310      C1669   1.469       .  S
C1311      O2997   1.285       .  A
C1311      C1573   1.499       .  S
C1312      O2998   1.286       .  A
C1312      C1589   1.505       .  S
O1313     Ni1321   1.898   1_554  S
O1314     Ni1321   1.891       .  S
O1314      C1324   1.273       .  A
O1315     Ni1321   2.000       .  S
O1315      C1325   1.298       .  A
O1316      C1326   1.296       .  A
O1317     Ni1322   1.987       .  S
O1319     Ni1322   1.909       .  S
O1320     Ni1322   1.906       .  S
C1324      C1637   1.469       .  S
C1326      C1554   1.580       .  S
O1327     Ni1335   1.919       .  S
O1327      C1337   1.280   1_556  A
O1328     Ni1335   1.916       .  S
O1328      C1338   1.280       .  A
O1329     Ni1335   1.974   1_455  S
O1329      C1339   1.292   1_556  A
O1330     Ni3031   1.973       .  S
O1330      C1340   1.292   1_556  A
O1331     Ni1336   1.977       .  S
O1332     Ni3032   1.980   1_455  S
O1333     Ni1336   1.897       .  S
O1333      C2610   1.275       .  A
O1334     Ni1336   1.907       .  S
O1334      C2609   1.277       .  A
Ni1335     O3026   1.975       .  S
Ni1335    Ni2608   2.374   1_556  S
Ni1336     O3028   1.981       .  S
Ni1336    Ni2607   2.375       .  S
C1337      O2606   1.280       .  A
C1337      C2890   1.482       .  S
C1338      O2605   1.277   1_556  A
C1338      C1602   1.467       .  S
C1340      C1506   1.554   1_554  S
O1341     Ni1349   1.899       .  S
O1341      C1351   1.274       .  A
O1342     Ni3045   1.894       .  S
O1342      C1352   1.279       .  A
O1343     Ni1349   1.932       .  S
O1343      C1353   1.283       .  A
O1344     Ni1349   1.931       .  S
O1344      C1354   1.284       .  A
O1345     Ni1350   1.933       .  S
O1345      C3050   1.283   1_655  A
O1346     Ni1350   1.935       .  S
O1346      C3049   1.286   1_655  A
O1347     Ni1350   1.907   1_455  S
O1347      C1352   1.276       .  A
O1348     Ni3046   1.898       .  S
O1348      C1351   1.279       .  A
Ni1349     O3038   1.891       .  S
Ni1349    Ni3046   2.388       .  S
Ni1350     O3044   1.899       .  S
Ni1350    Ni3045   2.388   1_655  S
C1351      C1490   1.446       .  S
C1352      C1477   1.453       .  S
C1353      O3042   1.286       .  A
C1353      C1570   1.512       .  S
C1354      O3041   1.285       .  A
C1354      C1586   1.501       .  S
O1355     Ni1361   1.922       .  S
O1355      C1376   1.272       .  A
O1356     Ni1379   1.879       .  S
O1356      C1365   1.258       .  A
O1357      H1380   0.966       .  S
O1357     Ni1361   1.915       .  S
O1357     Ni1379   1.887       .  S
O1357     Ni1373   1.898       .  S
C1358      O1375   1.260       .  A
C1358      O1367   1.270       .  A
C1358      C1458   1.485       .  S
O1359     Ni1378   1.920       .  S
O1359      C1365   1.271       .  A
O1360     Ni1378   1.896       .  S
O1360      C1362   1.269       .  A
Ni1361     O1364   1.941       .  S
Ni1361     O1366   1.898       .  S
C1362      O1372   1.280       .  A
C1362      C1426   1.480       .  S
O1363     Ni1379   1.880       .  S
O1363      C1369   1.263       .  A
O1364      C1369   1.273       .  A
C1365      C1474   1.450       .  S
O1366      C1368   1.266       .  A
O1367     Ni1378   1.945       .  S
C1368      O1374   1.272       .  A
C1368      C1413   1.469       .  S
C1369      C1442   1.477       .  S
H1370      O1371   0.968       .  S
O1371     Ni1379   1.916       .  S
O1371     Ni1373   1.889       .  S
O1371     Ni1378   1.916       .  S
O1372     Ni1373   1.948       .  S
Ni1373     O1377   1.876       .  S
Ni1373     O1375   1.880       .  S
O1374     Ni1379   1.941       .  S
C1376      O1377   1.258       .  A
C1376      C1493   1.450       .  S
O1381      C1391   1.278       .  A
O1382     Ni1389   1.907       .  S
O1382      C1392   1.277       .  A
O1383     Ni1389   1.982       .  S
O1383      C1393   1.294       .  A
O1384     Ni1389   1.967       .  S
O1385     Ni1390   1.982       .  S
O1385      C1394   1.294   1_554  A
O1386     Ni1390   1.977       .  S
O1387      C1392   1.277       .  A
O1388     Ni1390   1.908   1_556  S
O1388      C1391   1.277       .  A
C1391      C1461   1.459       .  S
C1392      C1445   1.453       .  S
C1393      C1525   1.562       .  S
C1394      C1509   1.555       .  S
O1395      C1405   1.278       .  A
O1396     Ni1403   1.912   1_565  S
O1396      C1406   1.279       .  A
O1397     Ni1403   1.992       .  S
O1397      C1407   1.296       .  A
O1398      C1408   1.295       .  A
O1399     Ni1404   2.000       .  S
O1399      C1408   1.297       .  A
O1400      C1407   1.297       .  A
O1401      C1406   1.279       .  A
O1402     Ni1404   1.909       .  S
O1402      C1405   1.278       .  A
C1405      C1410   1.464       .  S
C1406      C1429   1.474       .  S
C1407      C1538   1.581       .  S
C1408      C1557   1.574       .  S
C1409      C1410   1.399       .  A
C1409      C1414   1.404       .  A
C1409      H1416   1.084       .  S
C1410      C1411   1.412       .  A
C1411      C1412   1.404       .  A
C1411      C1418   1.517       .  S
C1412      C1413   1.403       .  A
C1412      H1417   1.084       .  S
C1413      C1414   1.418       .  A
C1414      C1415   1.520       .  S
C1415      F1419   1.385       .  S
C1415      F1420   1.381       .  S
C1415      F1421   1.381       .  S
C1418      F1422   1.382       .  S
C1418      F1423   1.382       .  S
C1418      F1424   1.385       .  S
C1425      C1426   1.405       .  A
C1425      C1430   1.404       .  A
C1425      H1432   1.083       .  S
C1426      C1427   1.420       .  A
C1427      C1428   1.405       .  A
C1427      C1434   1.520       .  S
C1428      C1429   1.401       .  A
C1428      H1433   1.081       .  S
C1429      C1430   1.416       .  A
C1430      C1431   1.519       .  S
C1431      F1435   1.385       .  S
C1431      F1436   1.382       .  S
C1431      F1437   1.382       .  S
C1434      F1438   1.382       .  S
C1434      F1439   1.384       .  S
C1434      F1440   1.385       .  S
C1441      C1442   1.410       .  A
C1441      C1446   1.394       .  A
C1441      H1448   1.084       .  S
C1442      C1443   1.420       .  A
C1443      C1444   1.406       .  A
C1443      C1450   1.522       .  S
C1444      C1445   1.402       .  A
C1444      H1449   1.084       .  S
C1445      C1446   1.403       .  A
C1446      C1447   1.516       .  S
C1447      F1451   1.384       .  S
C1447      F1452   1.385       .  S
C1447      F1453   1.383       .  S
C1450      F1454   1.382       .  S
C1450      F1455   1.384       .  S
C1450      F1456   1.385       .  S
C1457      C1458   1.412       .  A
C1457      C1462   1.399       .  A
C1457      H1464   1.083       .  S
C1458      C1459   1.423       .  A
C1459      C1460   1.405       .  A
C1459      C1466   1.520       .  S
C1460      C1461   1.399       .  A
C1460      H1465   1.083       .  S
C1461      C1462   1.406       .  A
C1462      C1463   1.520       .  S
C1463      F1467   1.385       .  S
C1463      F1468   1.382       .  S
C1463      F1469   1.383       .  S
C1466      F1470   1.383       .  S
C1466      F1471   1.383       .  S
C1466      F1472   1.385       .  S
C1473      C1474   1.400       .  A
C1473      C1478   1.401       .  A
C1473      H1480   1.084       .  S
C1474      C1475   1.410       .  A
C1475      C1476   1.395       .  A
C1475      C1482   1.517       .  S
C1476      C1477   1.399       .  A
C1476      H1481   1.084       .  S
C1477      C1478   1.411       .  A
C1478      C1479   1.515       .  S
C1479      F1483   1.385       .  S
C1479      F1484   1.382       .  S
C1479      F1485   1.383       .  S
C1482      F1486   1.383       .  S
C1482      F1487   1.381       .  S
C1482      F1488   1.385       .  S
C1489      C1490   1.399       .  A
C1489      C1494   1.397       .  A
C1489      H1496   1.084       .  S
C1490      C1491   1.408       .  A
C1491      C1492   1.397       .  A
C1491      C1498   1.516       .  S
C1492      C1493   1.401       .  A
C1492      H1497   1.084       .  S
C1493      C1494   1.410       .  A
C1494      C1495   1.518       .  S
C1495      F1499   1.385       .  S
C1495      F1500   1.383       .  S
C1495      F1501   1.383       .  S
C1498      F1502   1.383       .  S
C1498      F1503   1.382       .  S
C1498      F1504   1.385       .  S
C1505      C1510   1.436       .  A
C1505      H1512   1.082       .  S
C1506      C1507   1.432       .  A
C1507      C1508   1.435       .  A
C1507      C1514   1.518       .  S
C1508      C1509   1.416       .  A
C1508      H1513   1.082       .  S
C1510      C1511   1.517       .  S
C1511      F1515   1.384       .  S
C1511      F1516   1.381       .  S
C1511      F1517   1.383       .  S
C1514      F1518   1.385       .  S
C1514      F1519   1.384       .  S
C1514      F1520   1.382       .  S
C1521      C1522   1.417       .  A
C1521      C1526   1.440       .  A
C1521      H1528   1.082       .  S
C1523      C1524   1.437       .  A
C1523      C1530   1.517       .  S
C1524      H1529   1.082       .  S
C1525      C1526   1.436       .  A
C1526      C1527   1.518       .  S
C1527      F1531   1.385       .  S
C1527      F1532   1.382       .  S
C1527      F1533   1.383       .  S
C1530      F1534   1.382       .  S
C1530      F1535   1.384       .  S
C1530      F1536   1.384       .  S
C1537      C1542   1.445       .  A
C1537      H1544   1.082       .  S
C1538      C1539   1.442       .  A
C1539      C1540   1.448       .  A
C1539      C1546   1.517       .  S
C1540      C1541   1.417       .  A
C1540      H1545   1.082       .  S
C1542      C1543   1.515       .  S
C1543      F1547   1.384       .  S
C1543      F1548   1.383       .  S
C1543      F1549   1.379       .  S
C1546      F1550   1.383       .  S
C1546      F1551   1.381       .  S
C1546      F1552   1.384       .  S
C1553      C1558   1.443       .  A
C1553      H1560   1.082       .  S
C1554      C1555   1.440       .  A
C1555      C1556   1.449       .  A
C1555      C1562   1.517       .  S
C1556      C1557   1.419       .  A
C1556      H1561   1.082       .  S
C1558      C1559   1.515       .  S
C1559      F1563   1.384       .  S
C1559      F1564   1.382       .  S
C1559      F1565   1.382       .  S
C1562      F1566   1.383       .  S
C1562      F1567   1.384       .  S
C1562      F1568   1.384       .  S
C1569      C3266   1.411       .  A
C1569      C1574   1.415       .  A
C1569      H1576   1.082       .  S
C1570      C3265   1.410       .  A
C1570      C1571   1.429       .  A
C1571      C1572   1.416       .  A
C1571      C1578   1.519       .  S
C1572      C1573   1.402       .  A
C1572      H1577   1.083       .  S
C1573      C3270   1.418       .  A
C1574      C3269   1.416       .  A
C1574      C1575   1.515       .  S
C1575      F1579   1.385       .  S
C1575      F1580   1.382       .  S
C1575      F3277   1.383   1_455  S
C1578      F3278   1.383       .  S
C1578      F1583   1.384       .  S
C1578      F1584   1.385       .  S
F1581      C3271   1.383       .  S
F1582      C3274   1.382   1_455  S
C1585      C3282   1.407   1_655  A
C1585      C1590   1.415       .  A
C1585      H1592   1.082       .  S
C1586      C3281   1.405       .  A
C1586      C1587   1.421       .  A
C1587      C1588   1.416       .  A
C1587      C1594   1.519       .  S
C1588      C1589   1.408       .  A
C1588      H1593   1.083       .  S
C1589      C3286   1.424       .  A
C1590      C3285   1.422   1_655  A
C1590      C1591   1.519       .  S
C1591      F1595   1.385       .  S
C1591      F1596   1.381       .  S
C1591      F3293   1.382       .  S
C1594      F3294   1.383       .  S
C1594      F1599   1.382       .  S
C1594      F1600   1.385       .  S
F1597      C3287   1.382       .  S
F1598      C3290   1.383       .  S
C1601      C1602   1.397   1_455  A
C1601      C1606   1.404       .  A
C1601      H1608   1.084       .  S
C1602      C2875   1.412       .  A
C1603      C2874   1.411       .  A
C1603      C1604   1.400       .  A
C1603      C1610   1.520       .  S
C1604      C2877   1.407       .  A
C1604      H1609   1.083       .  S
C1605      C2876   1.408   1_455  A
C1605      C1606   1.426       .  A
C1606      C1607   1.523       .  S
C1607      F1611   1.385       .  S
C1607      F1612   1.383       .  S
C1607      F1613   1.383       .  S
C1610      F1614   1.382       .  S
C1610      F1615   1.383       .  S
C1610      F1616   1.384       .  S
C1617      C3314   1.406       .  A
C1617      C1622   1.405       .  A
C1617      H1624   1.083       .  S
C1618      C2609   1.479       .  S
C1618      C3313   1.406       .  A
C1619      C1620   1.401       .  A
C1619      C1626   1.521   1_554  S
C1620      H1625   1.083   1_554  S
C1621      C3318   1.411       .  A
C1622      C3317   1.412       .  A
C1622      C1623   1.518       .  S
C1623      F1627   1.384       .  S
C1623      F1628   1.383       .  S
C1623      F1629   1.383       .  S
C1626      F1630   1.384       .  S
C1626      F1631   1.382       .  S
C1626      F1632   1.385       .  S
C1633      C1634   1.396       .  A
C1633      C1638   1.396       .  A
C1633      H1640   1.084       .  S
C1635      C1636   1.400       .  A
C1635      C1642   1.519       .  S
C1636      H1641   1.082       .  S
C1637      C1638   1.423       .  A
C1638      C1639   1.523       .  S
C1639      F1643   1.383       .  S
C1639      F1644   1.382       .  S
C1639      F1645   1.385       .  S
C1642      F1646   1.384       .  S
C1642      F1647   1.383       .  S
C1642      F1648   1.385       .  S
C1649      C1654   1.396       .  A
C1649      H1656   1.083       .  S
C1650      C1651   1.415       .  A
C1651      C1652   1.398       .  A
C1651      C1658   1.517   1_545  S
C1652      C1653   1.397       .  A
C1652      H1657   1.084   1_545  S
C1654      C1655   1.520       .  S
C1655      F1659   1.384   1_554  S
C1655      F1660   1.383       .  S
C1655      F1661   1.383   1_554  S
C1658      F1662   1.383   1_565  S
C1658      F1663   1.382       .  S
C1658      F1664   1.385       .  S
C1665      C3362   1.400   1_545  A
C1665      C1670   1.407       .  A
C1665      H1672   1.083       .  S
C1666      C3361   1.402   1_565  A
C1666      C1667   1.417       .  A
C1667      C1668   1.394       .  A
C1667      C1674   1.519       .  S
C1668      C1669   1.398       .  A
C1668      H1673   1.084       .  S
C1669      C3366   1.418   1_565  A
C1670      C3365   1.417   1_545  A
C1671      F1675   1.385       .  S
C1671      F1676   1.381       .  S
C1674      F1678   1.380       .  S
C1674      F1679   1.382       .  S
C1674      F1680   1.385       .  S
C1681      C1682   1.399       .  A
C1681      C1686   1.393       .  A
C1681      H1688   1.082   1_655  S
C1682      C3005   1.463       .  S
C1682      C2531   1.417       .  A
C1683      C2530   1.418   1_545  A
C1683      C1690   1.518       .  S
C1684      C3381   1.401       .  A
C1685      C3380   1.401       .  A
C1685      C1686   1.414       .  A
C1686      C1687   1.522   1_655  S
C1687      F1691   1.385       .  S
C1687      F1692   1.382       .  S
C1687      F1693   1.384   1_455  S
C1690      F1695   1.382       .  S
C1690      F1696   1.385       .  S
O1697     Ni1703   1.924       .  S
O1697      C2142   1.272       .  A
O1698     Ni1721   1.900       .  S
O1698      C2555   1.262       .  A
O1699      H1722   0.969       .  S
O1699     Ni2551   1.901   1_545  S
O1699     Ni2139   1.901       .  S
C1700      O1717   1.275       .  A
C1700      C2109   1.452   1_545  S
O1701     Ni1720   1.917       .  S
O1701      C2131   1.270   1_554  A
O1702     Ni1720   1.918       .  S
O1702      C1704   1.266       .  A
Ni1703     O1706   1.937       .  S
Ni1703     O1708   1.903       .  S
Ni1703     O2547   1.907       .  S
C1704      C2045   1.486       .  S
O1705     Ni1721   1.888   1_455  S
O1705      C1711   1.270       .  A
C1707      O2546   1.260       .  A
C1707      O2125   1.267   1_565  A
C1707      C2058   1.451       .  S
O1708      C1710   1.265       .  A
O1709     Ni1720   1.914   1_565  S
C1710      C2029   1.475       .  S
C1711      C2090   1.455       .  S
H1712      O1713   0.966       .  S
O1713     Ni2145   1.906   1_554  S
O1713     Ni2568   1.898       .  S
O1714     Ni1715   1.910       .  S
Ni1715     O1719   1.888       .  S
Ni1715     O1717   1.903       .  S
Ni1715     O2123   1.910   1_554  S
O1716     Ni1721   1.917   1_455  S
C1718      O2121   1.269       .  A
C1718      O2567   1.260       .  A
C1718      C2077   1.448       .  S
O1719      C2566   1.261       .  A
Ni1720     O2561   1.898   1_545  S
Ni1721     O2137   1.901       .  S
O1723     Ni1731   1.904       .  S
O1724     Ni2579   1.902       .  S
O1725     Ni2579   1.937       .  S
O1726     Ni1731   1.935   1_545  S
O1727     Ni2580   1.936   1_545  S
O1727      C1736   1.283       .  A
O1728     Ni1732   1.932       .  S
O1728      C1735   1.284   1_655  A
O1729     Ni1732   1.903       .  S
O1729      C1734   1.280   1_655  A
O1730     Ni2580   1.905       .  S
O1730      C1733   1.277       .  A
Ni1731     O2572   1.904       .  S
Ni1731     O2573   1.938       .  S
Ni1732     O2575   1.933       .  S
Ni1732     O2578   1.916       .  S
C1734      C2093   1.463       .  S
C1735      C1997   1.505       .  S
C1736      C2013   1.510       .  S
O1737     Ni1745   1.892       .  S
O1737      C2171   1.274       .  A
O1738     Ni1745   1.890       .  S
O1738      C1748   1.273       .  A
O1739     Ni1745   1.999       .  S
O1739      C1749   1.297       .  A
O1740     Ni2169   1.995   1_554  S
O1740      C1750   1.296       .  A
O1741     Ni1746   1.997   1_554  S
O1741      C2598   1.297       .  A
O1742     Ni2170   1.993       .  S
O1742      C2597   1.296       .  A
O1743     Ni1746   1.887       .  S
O1743      C3020   1.277       .  A
O1744     Ni1746   1.890   1_554  S
O1744      C2595   1.275       .  A
Ni1745     O2164   1.993       .  S
Ni1745    Ni3018   2.372   1_545  S
Ni1746     O2166   1.992       .  S
Ni1746    Ni3017   2.371       .  S
C1747      O2161   1.278       .  A
C1747      O2592   1.274   1_545  A
C1747      C2922   1.466       .  S
C1748      O3015   1.280   1_545  A
C1748      C2061   1.475       .  S
C1749      O2590   1.295   1_545  A
C1749      C2813   1.573       .  S
C1750      O2589   1.298   1_545  A
C1750      C1978   1.582       .  S
O1751     Ni1759   1.910       .  S
O1751      C1761   1.279       .  A
O1752     Ni1759   1.910       .  S
O1752      C1762   1.279       .  A
O1753     Ni1759   1.974       .  S
O1753      C1763   1.292       .  A
O1754      C1764   1.291       .  A
O1755     Ni1760   1.979       .  S
O1755      C2188   1.293       .  A
O1756      C2187   1.292       .  A
O1757     Ni1760   1.906       .  S
O1758     Ni1760   1.919       .  S
C1762      C2026   1.461       .  S
C1763      O2180   1.293       .  A
C1763      C2370   1.557       .  S
C1764      O2179   1.294       .  A
C1764      C1930   1.556       .  S
O1765     Ni1773   1.890   1_655  S
O1765      C1775   1.272       .  A
O1766      C1776   1.278       .  A
O1767     Ni1773   1.945       .  S
O1767      C1777   1.287       .  A
O1768     Ni1773   1.941       .  S
O1768      C1778   1.287       .  A
O1769     Ni1774   1.927       .  S
O1770     Ni1774   1.929       .  S
O1771     Ni1774   1.906       .  S
O1771      C1776   1.277       .  A
O1772      C1775   1.280       .  A
C1775      C1914   1.444       .  S
C1776      C1901   1.461       .  S
C1777      C1994   1.515       .  S
C1778      C2010   1.507   1_455  S
O1779     Ni1785   1.916       .  S
O1779      C1800   1.272       .  A
O1780     Ni1803   1.880       .  S
O1780      C1789   1.259       .  A
O1781      H1804   0.966       .  S
O1781     Ni1785   1.908       .  S
O1781     Ni1803   1.882       .  S
O1781     Ni1797   1.898       .  S
C1782      O1799   1.264       .  A
C1782      O1791   1.262       .  A
C1782      C1882   1.470       .  S
O1783     Ni1802   1.902       .  S
O1783      C1789   1.266       .  A
O1784     Ni1802   1.897       .  S
O1784      C1786   1.272       .  A
Ni1785     O1788   1.940       .  S
Ni1785     O1790   1.898       .  S
C1786      O1796   1.285       .  A
C1786      C1850   1.473       .  S
O1787     Ni1803   1.879       .  S
O1787      C1793   1.265       .  A
O1788      C1793   1.273       .  A
C1789      C1898   1.449       .  S
O1790      C1792   1.267       .  A
O1791     Ni1802   1.920       .  S
C1792      O1798   1.268       .  A
C1792      C1837   1.478       .  S
C1793      C1866   1.479       .  S
H1794      O1795   0.968       .  S
O1795     Ni1803   1.921       .  S
O1795     Ni1797   1.888       .  S
O1795     Ni1802   1.906       .  S
O1796     Ni1797   1.951       .  S
Ni1797     O1801   1.881       .  S
Ni1797     O1799   1.901       .  S
O1798     Ni1803   1.932       .  S
C1800      O1801   1.261       .  A
C1800      C1917   1.446       .  S
O1805     Ni2237   1.896       .  S
O1805      C1815   1.276       .  A
O1806     Ni1813   1.907   1_554  S
O1806      C1816   1.277       .  A
O1807     Ni1813   1.973       .  S
O1807      C1817   1.292   1_556  A
O1808     Ni1813   1.967       .  S
O1808      C2242   1.291   1_556  A
O1809     Ni1814   1.975       .  S
O1809      C1818   1.292       .  A
O1810     Ni1814   1.973       .  S
O1810      C2241   1.292       .  A
O1811     Ni2238   1.891       .  S
O1811      C1816   1.276       .  A
O1812     Ni1814   1.904       .  S
O1812      C1815   1.276       .  A
Ni1813     O2229   1.898       .  S
Ni1813    Ni2238   2.380   1_556  S
Ni1814     O2235   1.895       .  S
Ni1814    Ni2237   2.381       .  S
C1815      C1885   1.450       .  S
C1816      C1869   1.452       .  S
C1817      O2234   1.294       .  A
C1817      C1949   1.554       .  S
C1818      O2232   1.292       .  A
C1818      C1933   1.553       .  S
O1819     Ni2675   1.920       .  S
O1819      C1829   1.282       .  A
O1820     Ni1827   1.918       .  S
O1820      C1830   1.280       .  A
O1821     Ni1827   1.990       .  S
O1821      C1831   1.295       .  A
O1822     Ni2675   1.991       .  S
O1822      C1832   1.295       .  A
O1823     Ni1828   2.003       .  S
O1823      C1832   1.298       .  A
O1824     Ni2676   1.998       .  S
O1824      C1831   1.298       .  A
O1825     Ni2676   1.903       .  S
O1825      C1830   1.277       .  A
O1826     Ni1828   1.897       .  S
O1826      C1829   1.274       .  A
Ni1827     O2667   1.914       .  S
Ni1827     O2670   1.989       .  S
Ni1827    Ni2676   2.373       .  S
Ni1828     O2672   2.001       .  S
Ni1828     O2673   1.900   1_545  S
Ni1828    Ni2675   2.372       .  S
C1829      C1834   1.470       .  S
C1830      C1853   1.467       .  S
C1831      C1962   1.578       .  S
C1832      C1981   1.580       .  S
C1833      C1834   1.399       .  A
C1833      C1838   1.404       .  A
C1833      H1840   1.083       .  S
C1834      C1835   1.418       .  A
C1835      C1836   1.402       .  A
C1835      C1842   1.521       .  S
C1836      C1837   1.403       .  A
C1836      H1841   1.083       .  S
C1837      C1838   1.423       .  A
C1838      C1839   1.521       .  S
C1839      F1843   1.385       .  S
C1839      F1844   1.382       .  S
C1839      F1845   1.381       .  S
C1842      F1846   1.382       .  S
C1842      F1847   1.381       .  S
C1842      F1848   1.385       .  S
C1849      C1850   1.402       .  A
C1849      C1854   1.399       .  A
C1849      H1856   1.083       .  S
C1850      C1851   1.419       .  A
C1851      C1852   1.408       .  A
C1851      C1858   1.520       .  S
C1852      C1853   1.401       .  A
C1852      H1857   1.082       .  S
C1853      C1854   1.414       .  A
C1854      C1855   1.520       .  S
C1855      F1859   1.385       .  S
C1855      F1860   1.382       .  S
C1855      F1861   1.382       .  S
C1858      F1862   1.382       .  S
C1858      F1863   1.383       .  S
C1858      F1864   1.385       .  S
C1865      C1866   1.411       .  A
C1865      C1870   1.396       .  A
C1865      H1872   1.083       .  S
C1866      C1867   1.421       .  A
C1867      C1868   1.403       .  A
C1867      C1874   1.521       .  S
C1868      C1869   1.401       .  A
C1868      H1873   1.084       .  S
C1869      C1870   1.402       .  A
C1870      C1871   1.516       .  S
C1871      F1875   1.384       .  S
C1871      F1876   1.383       .  S
C1871      F1877   1.382       .  S
C1874      F1878   1.383       .  S
C1874      F1879   1.383       .  S
C1874      F1880   1.385       .  S
C1881      C1882   1.407       .  A
C1881      C1886   1.402       .  A
C1881      H1888   1.083       .  S
C1882      C1883   1.423       .  A
C1883      C1884   1.397       .  A
C1883      C1890   1.523       .  S
C1884      C1885   1.394       .  A
C1884      H1889   1.084       .  S
C1885      C1886   1.406       .  A
C1886      C1887   1.517       .  S
C1887      F1891   1.384       .  S
C1887      F1892   1.383       .  S
C1887      F1893   1.384       .  S
C1890      F1894   1.384       .  S
C1890      F1895   1.383       .  S
C1890      F1896   1.385       .  S
C1897      C1898   1.398       .  A
C1897      C1902   1.401       .  A
C1897      H1904   1.084       .  S
C1898      C1899   1.412       .  A
C1899      C1900   1.393       .  A
C1899      C1906   1.523       .  S
C1900      C1901   1.402       .  A
C1900      H1905   1.084       .  S
C1901      C1902   1.417       .  A
C1902      C1903   1.517       .  S
C1903      F1907   1.385       .  S
C1903      F1908   1.382       .  S
C1903      F1909   1.383       .  S
C1906      F1910   1.382       .  S
C1906      F1911   1.383       .  S
C1906      F1912   1.385       .  S
C1913      C1914   1.401       .  A
C1913      C1918   1.393       .  A
C1913      H1920   1.084       .  S
C1914      C1915   1.405       .  A
C1915      C1916   1.399       .  A
C1915      C1922   1.516       .  S
C1916      C1917   1.405       .  A
C1916      H1921   1.084       .  S
C1917      C1918   1.404       .  A
C1918      C1919   1.514       .  S
C1919      F1923   1.386       .  S
C1919      F1924   1.383       .  S
C1919      F1925   1.382       .  S
C1922      F1926   1.383       .  S
C1922      F1927   1.383       .  S
C1922      F1928   1.385       .  S
C1929      C2354   1.417       .  A
C1929      C1934   1.439       .  A
C1929      H1936   1.082       .  S
C1930      C2353   1.416       .  A
C1930      C1931   1.434       .  A
C1931      C1932   1.435       .  A
C1931      C1938   1.517       .  S
C1932      C1933   1.413       .  A
C1932      H1937   1.082       .  S
C1933      C2358   1.434       .  A
C1934      C2357   1.434       .  A
C1934      C1935   1.518       .  S
C1935      F1939   1.384       .  S
C1935      F1940   1.382       .  S
C1935      F1941   1.383       .  S
C1938      F1942   1.385       .  S
C1938      F1943   1.380       .  S
C1938      F1944   1.382       .  S
C1945      C1946   1.417   1_556  A
C1945      C1950   1.437       .  A
C1945      H1952   1.082       .  S
C1946      C2187   1.558       .  S
C1946      C2371   1.435       .  A
C1947      C2370   1.433       .  A
C1947      C1948   1.437       .  A
C1947      C1954   1.518       .  S
C1948      C2373   1.416       .  A
C1948      H1953   1.082       .  S
C1949      C2372   1.414       .  A
C1949      C1950   1.433   1_554  A
C1950      C1951   1.518       .  S
C1951      F1955   1.385       .  S
C1951      F1956   1.382       .  S
C1951      F1957   1.383       .  S
C1954      F1958   1.383       .  S
C1954      F1959   1.384       .  S
C1954      F1960   1.384       .  S
C1961      C2810   1.421   1_565  A
C1961      C1966   1.447       .  A
C1961      H1968   1.082       .  S
C1962      C2809   1.420       .  A
C1962      C1963   1.439       .  A
C1963      C1964   1.448       .  A
C1963      C1970   1.517       .  S
C1964      C1965   1.418       .  A
C1964      H1969   1.082       .  S
C1965      C2597   1.574       .  S
C1965      C2814   1.435       .  A
C1966      C2813   1.435   1_565  A
C1966      C1967   1.517       .  S
C1967      F1971   1.384       .  S
C1967      F1972   1.382       .  S
C1967      F1973   1.382       .  S
C1970      F1974   1.382       .  S
C1970      F1975   1.382       .  S
C1970      F1976   1.384       .  S
C1977      C2826   1.417       .  A
C1977      C1982   1.444       .  A
C1977      H1984   1.077       .  S
C1978      C2825   1.420   1_545  A
C1978      C1979   1.438       .  A
C1979      C1980   1.450       .  A
C1979      C1986   1.516       .  S
C1980      C1981   1.421       .  A
C1980      H1985   1.082       .  S
C1981      C2830   1.436   1_545  A
C1982      C2829   1.437       .  A
C1982      C1983   1.517       .  S
C1983      F1987   1.385       .  S
C1983      F1988   1.382       .  S
C1983      F1989   1.382       .  S
C1986      F1990   1.382       .  S
C1986      F1991   1.383       .  S
C1986      F1992   1.384       .  S
C1993      C1998   1.417       .  A
C1993      H2000   1.082       .  S
C1994      C1995   1.426   1_455  A
C1995      C1996   1.416       .  A
C1995      C2002   1.520       .  S
C1996      C1997   1.406   1_655  A
C1996      H2001   1.083       .  S
C1998      C1999   1.519       .  S
C1999      F2003   1.385       .  S
C1999      F2004   1.382       .  S
C2002      F2007   1.382       .  S
C2002      F2008   1.385       .  S
C2009      C2014   1.420       .  A
C2009      H2016   1.083       .  S
C2010      C2011   1.424   1_655  A
C2011      C2012   1.414       .  A
C2011      C2018   1.520       .  S
C2012      C2013   1.407   1_455  A
C2012      H2017   1.082       .  S
C2014      C2015   1.519       .  S
C2015      F2019   1.385       .  S
C2015      F2020   1.384       .  S
C2018      F2023   1.383       .  S
C2018      F2024   1.385       .  S
C2025      C2026   1.400       .  A
C2025      C2030   1.403       .  A
C2025      H2032   1.084       .  S
C2027      C2028   1.403   1_554  A
C2027      C2034   1.519       .  S
C2028      H2033   1.083   1_556  S
C2029      C2030   1.420       .  A
C2030      C2031   1.521       .  S
C2031      F2035   1.385       .  S
C2031      F2036   1.383       .  S
C2031      F2037   1.383       .  S
C2034      F2038   1.383       .  S
C2034      F2039   1.383   1_554  S
C2034      F2040   1.384       .  S
C2041      C2046   1.407       .  A
C2041      H2048   1.082       .  S
C2042      C2467   1.419       .  A
C2043      C2466   1.413   1_455  A
C2043      C2044   1.403       .  A
C2043      C2050   1.519       .  S
C2044      C2469   1.404   1_455  A
C2044      H2049   1.084       .  S
C2045      C2468   1.405       .  A
C2046      C2047   1.519       .  S
C2047      F2051   1.385       .  S
C2047      F2052   1.383       .  S
C2047      F2053   1.382       .  S
C2050      F2054   1.383       .  S
C2050      F2055   1.383       .  S
C2050      F2056   1.384       .  S
C2057      C2058   1.394   1_545  A
C2057      C2062   1.397       .  A
C2057      H2064   1.084       .  S
C2058      C3331   1.409       .  A
C2059      C3330   1.409       .  A
C2059      C2060   1.393       .  A
C2059      C2066   1.522       .  S
C2060      C3333   1.408       .  A
C2060      H2065   1.082       .  S
C2061      C3332   1.407   1_545  A
C2061      C2062   1.425       .  A
C2062      C2063   1.522       .  S
C2063      F2067   1.384       .  S
C2063      F2068   1.383       .  S
C2063      F2069   1.385       .  S
C2066      F2070   1.384   1_556  S
C2066      F2071   1.381       .  S
C2066      F2072   1.385       .  S
C2073      C3346   1.400       .  A
C2073      C2078   1.396       .  A
C2073      H2080   1.084       .  S
C2074      C2595   1.469       .  S
C2074      C3345   1.405       .  A
C2074      C2075   1.422       .  A
C2075      C2076   1.394       .  A
C2075      C2082   1.519       .  S
C2076      C2077   1.395       .  A
C2076      H2081   1.085       .  S
C2077      C3350   1.410       .  A
C2078      C3349   1.410       .  A
C2078      C2079   1.518       .  S
C2079      F2083   1.385       .  S
C2079      F2084   1.383       .  S
C2079      F2085   1.383       .  S
C2082      F2086   1.379       .  S
C2082      F2087   1.383       .  S
C2082      F2088   1.385       .  S
C2089      C2094   1.403       .  A
C2089      H2096   1.083       .  S
C2090      C2091   1.413       .  A
C2091      C2092   1.396       .  A
C2091      C2098   1.517       .  S
C2092      C2093   1.399       .  A
C2092      H2097   1.084       .  S
C2094      C2943   1.518       .  S
C2095      C2942   1.518   1_545  S
C2095      F2099   1.384       .  S
C2095      F2100   1.383       .  S
C2095      F2949   1.383   1_545  S
C2098      F2102   1.380   1_455  S
C2098      F2103   1.381       .  S
C2098      F2104   1.385   1_455  S
F2101      C2943   1.383       .  S
C2105      C2106   1.398       .  A
C2105      C2110   1.401       .  A
C2105      H2112   1.083       .  S
C2107      C2956   1.400       .  A
C2107      C2114   1.516       .  S
C2108      C2955   1.405       .  A
C2108      H2961   1.083   1_565  S
C2109      C2110   1.414       .  A
C2110      C2111   1.518       .  S
C2111      F2115   1.384       .  S
C2111      F2116   1.384       .  S
C2111      F2117   1.383       .  S
H2113      C2956   1.084       .  S
C2114      F2966   1.381   1_655  S
C2114      F2119   1.383       .  S
C2114      F2120   1.384       .  S
F2118      C2962   1.383   1_545  S
O2121     Ni2127   1.920   1_554  S
O2122     Ni2145   1.880       .  S
O2122      C2979   1.259       .  A
O2123      H2146   0.966       .  S
O2123     Ni2975   1.895   1_545  S
C2124      O2141   1.272       .  A
C2124      C2533   1.458       .  S
O2125     Ni2144   1.911       .  S
O2126     Ni2144   1.908       .  S
O2126      C2128   1.265       .  A
Ni2127     O2130   1.940       .  S
Ni2127     O2132   1.890       .  S
Ni2127     O2971   1.900       .  S
C2128      C2469   1.469       .  S
O2129     Ni2145   1.892   1_455  S
O2129      C2135   1.271       .  A
C2131      O2970   1.257   1_545  A
C2131      C2482   1.443       .  S
O2132      C2134   1.261       .  A
O2133     Ni2144   1.913       .  S
C2134      C2453   1.478       .  S
C2135      C2514   1.463       .  S
H2136      O2137   0.966       .  S
O2137     Ni2992   1.897       .  S
O2138     Ni2139   1.902       .  S
Ni2139     O2143   1.882       .  S
Ni2139     O2141   1.901       .  S
O2140     Ni2145   1.921       .  S
C2142      O2991   1.258       .  A
C2142      C2501   1.447       .  S
O2143      C2990   1.258       .  A
Ni2144     O2985   1.898   1_545  S
O2147     Ni2155   1.900       .  S
O2148     Ni3003   1.911       .  S
O2149     Ni3003   1.942       .  S
O2150     Ni2155   1.934   1_545  S
O2151     Ni3004   1.929   1_545  S
O2151      C2160   1.282   1_655  A
O2152     Ni2156   1.934       .  S
O2152      C2159   1.284   1_655  A
O2153     Ni2156   1.904       .  S
O2153      C2158   1.281   1_655  A
O2154     Ni3004   1.909       .  S
O2154      C2157   1.278       .  A
Ni2155     O2996   1.911       .  S
Ni2155     O2997   1.938       .  S
Ni2156     O2999   1.931       .  S
Ni2156     O3002   1.910       .  S
C2158      C2517   1.467       .  S
C2159      C2421   1.499       .  S
C2160      C2437   1.502   1_455  S
O2161     Ni2169   1.901   1_554  S
O2162     Ni2169   1.894       .  S
O2162      C2172   1.274       .  A
O2163     Ni2169   1.995       .  S
O2163      C2173   1.296       .  A
O2164      C2174   1.296       .  A
O2165     Ni2170   1.990       .  S
O2165      C3022   1.296       .  A
O2166      C3021   1.295       .  A
O2167     Ni2170   1.904       .  S
O2167      C2596   1.279       .  A
O2168     Ni2170   1.903       .  S
O2168      C3019   1.279       .  A
Ni2169    Ni2594   2.371   1_545  S
Ni2170    Ni2593   2.372       .  S
C2171      O3016   1.279   1_545  A
C2171      C3346   1.457       .  S
C2172      O2591   1.277   1_545  A
C2172      C2485   1.468       .  S
C2173      O3014   1.296   1_545  A
C2173      C3237   1.570       .  S
C2174      O3013   1.295   1_545  A
C2174      C2402   1.576       .  S
O2175     Ni2183   1.908       .  S
O2175      C2185   1.277   1_556  A
O2176     Ni2183   1.902       .  S
O2176      C2186   1.277       .  A
O2177     Ni2183   1.975       .  S
O2177      C2187   1.293   1_556  A
O2178      C2188   1.292   1_556  A
O2179     Ni2184   1.978       .  S
O2181     Ni2184   1.898       .  S
O2182     Ni2184   1.906       .  S
C2186      C2450   1.457       .  S
C2188      C2354   1.557       .  S
O2189     Ni2197   1.900   1_655  S
O2189      C2199   1.274       .  A
O2190      C2200   1.279       .  A
O2191     Ni2197   1.937       .  S
O2191      C2201   1.284       .  A
O2192     Ni2197   1.935       .  S
O2192      C2202   1.285   1_455  A
O2193     Ni2198   1.936       .  S
O2194     Ni2198   1.940       .  S
O2195     Ni2198   1.905       .  S
O2195      C2200   1.276       .  A
O2196      C2199   1.279       .  A
C2199      C2338   1.449       .  S
C2200      C2325   1.452       .  S
C2201      C2418   1.518       .  S
C2202      C2434   1.503       .  S
O2203     Ni2209   1.921       .  S
O2203      C2224   1.273       .  A
O2204     Ni2227   1.872       .  S
O2204      C2213   1.255       .  A
O2205      H2228   0.966       .  S
O2205     Ni2209   1.909       .  S
O2205     Ni2227   1.883       .  S
O2205     Ni2221   1.895       .  S
C2206      O2223   1.261       .  A
C2206      O2215   1.267       .  A
C2206      C2306   1.474       .  S
O2207     Ni2226   1.917       .  S
O2207      C2213   1.270       .  A
O2208     Ni2226   1.896       .  S
O2208      C2210   1.271       .  A
Ni2209     O2212   1.944       .  S
Ni2209     O2214   1.899       .  S
C2210      O2220   1.280       .  A
C2210      C2274   1.478       .  S
O2211     Ni2227   1.871       .  S
O2211      C2217   1.259       .  A
O2212      C2217   1.273       .  A
C2213      C2322   1.446       .  S
O2214      C2216   1.267       .  A
O2215     Ni2226   1.936       .  S
C2216      O2222   1.274       .  A
C2216      C2261   1.474       .  S
C2217      C2290   1.470       .  S
H2218      O2219   0.968       .  S
O2219     Ni2227   1.912       .  S
O2219     Ni2221   1.888       .  S
O2219     Ni2226   1.916       .  S
O2220     Ni2221   1.948       .  S
Ni2221     O2225   1.885       .  S
Ni2221     O2223   1.877       .  S
O2222     Ni2227   1.947       .  S
C2224      O2225   1.262       .  A
C2224      C2341   1.457       .  S
O2229      C2239   1.278       .  A
O2230     Ni2237   1.903       .  S
O2230      C2240   1.276       .  A
O2231     Ni2237   1.979       .  S
O2231      C2241   1.294       .  A
O2232     Ni2237   1.971       .  S
O2233     Ni2238   1.983       .  S
O2233      C2242   1.295       .  A
O2234     Ni2238   1.978       .  S
O2235      C2240   1.277       .  A
O2236     Ni2238   1.900   1_556  S
O2236      C2239   1.275       .  A
C2239      C2309   1.450       .  S
C2240      C2293   1.449       .  S
C2241      C2373   1.558       .  S
C2242      C2357   1.557       .  S
O2243     Ni3099   1.915       .  S
O2243      C2253   1.278       .  A
O2244     Ni2251   1.913       .  S
O2244      C2254   1.280       .  A
O2245     Ni2251   1.989       .  S
O2245      C2255   1.295       .  A
O2246     Ni3099   1.987       .  S
O2246      C2256   1.295       .  A
O2247     Ni2252   1.999       .  S
O2247      C2256   1.297       .  A
O2248     Ni3100   1.996       .  S
O2248      C2255   1.298       .  A
O2249     Ni3100   1.911       .  S
O2249      C2254   1.278       .  A
O2250     Ni2252   1.911       .  S
O2250      C2253   1.279       .  A
Ni2251     O3091   1.914       .  S
Ni2251     O3094   1.987       .  S
Ni2251    Ni3100   2.373       .  S
Ni2252     O3096   1.993       .  S
Ni2252     O3097   1.917   1_545  S
Ni2252    Ni3099   2.373       .  S
C2253      C2258   1.467       .  S
C2254      C2277   1.472       .  S
C2255      C2386   1.583       .  S
C2256      C2405   1.573       .  S
C2257      C2258   1.398       .  A
C2257      C2262   1.405       .  A
C2257      H2264   1.084       .  S
C2258      C2259   1.412       .  A
C2259      C2260   1.405       .  A
C2259      C2266   1.517       .  S
C2260      C2261   1.403       .  A
C2260      H2265   1.083       .  S
C2261      C2262   1.420       .  A
C2262      C2263   1.519       .  S
C2263      F2267   1.385       .  S
C2263      F2268   1.381       .  S
C2263      F2269   1.381       .  S
C2266      F2270   1.382       .  S
C2266      F2271   1.382       .  S
C2266      F2272   1.384       .  S
C2273      C2274   1.405       .  A
C2273      C2278   1.404       .  A
C2273      H2280   1.083       .  S
C2274      C2275   1.419       .  A
C2275      C2276   1.403       .  A
C2275      C2282   1.520       .  S
C2276      C2277   1.400       .  A
C2276      H2281   1.082       .  S
C2277      C2278   1.417       .  A
C2278      C2279   1.520       .  S
C2279      F2283   1.385       .  S
C2279      F2284   1.382       .  S
C2279      F2285   1.382       .  S
C2282      F2286   1.383       .  S
C2282      F2287   1.384       .  S
C2282      F2288   1.385       .  S
C2289      C2290   1.409       .  A
C2289      C2294   1.394       .  A
C2289      H2296   1.084       .  S
C2290      C2291   1.414       .  A
C2291      C2292   1.403       .  A
C2291      C2298   1.520       .  S
C2292      C2293   1.403       .  A
C2292      H2297   1.084       .  S
C2293      C2294   1.405       .  A
C2294      C2295   1.518       .  S
C2295      F2299   1.384       .  S
C2295      F2300   1.383       .  S
C2295      F2301   1.383       .  S
C2298      F2302   1.382       .  S
C2298      F2303   1.384       .  S
C2298      F2304   1.384       .  S
C2305      C2306   1.409       .  A
C2305      C2310   1.394       .  A
C2305      H2312   1.083       .  S
C2306      C2307   1.422       .  A
C2307      C2308   1.402       .  A
C2307      C2314   1.520       .  S
C2308      C2309   1.399       .  A
C2308      H2313   1.084       .  S
C2309      C2310   1.405       .  A
C2310      C2311   1.519       .  S
C2311      F2315   1.385       .  S
C2311      F2316   1.382       .  S
C2311      F2317   1.383       .  S
C2314      F2318   1.383       .  S
C2314      F2319   1.383       .  S
C2314      F2320   1.385       .  S
C2321      C2322   1.399       .  A
C2321      C2326   1.401       .  A
C2321      H2328   1.084       .  S
C2322      C2323   1.409       .  A
C2323      C2324   1.393       .  A
C2323      C2330   1.520       .  S
C2324      C2325   1.400       .  A
C2324      H2329   1.084       .  S
C2325      C2326   1.412       .  A
C2326      C2327   1.516       .  S
C2327      F2331   1.385       .  S
C2327      F2332   1.382       .  S
C2327      F2333   1.383       .  S
C2330      F2334   1.383       .  S
C2330      F2335   1.382       .  S
C2330      F2336   1.385       .  S
C2337      C2338   1.399       .  A
C2337      C2342   1.400       .  A
C2337      H2344   1.084       .  S
C2338      C2339   1.409       .  A
C2339      C2340   1.397       .  A
C2339      C2346   1.516       .  S
C2340      C2341   1.402       .  A
C2340      H2345   1.084       .  S
C2341      C2342   1.412       .  A
C2342      C2343   1.517       .  S
C2343      F2347   1.385       .  S
C2343      F2348   1.383       .  S
C2343      F2349   1.383       .  S
C2346      F2350   1.383       .  S
C2346      F2351   1.383       .  S
C2346      F2352   1.385       .  S
C2353      C2358   1.437       .  A
C2353      H2360   1.082       .  S
C2354      C2355   1.433   1_554  A
C2355      C2356   1.436       .  A
C2355      C2362   1.518       .  S
C2356      C2357   1.416   1_556  A
C2356      H2361   1.082       .  S
C2358      C2359   1.518       .  S
C2359      F2363   1.384       .  S
C2359      F2364   1.381       .  S
C2359      F2365   1.383       .  S
C2362      F2366   1.384       .  S
C2362      F2367   1.384       .  S
C2362      F2368   1.383       .  S
C2369      C2370   1.416       .  A
C2369      C2374   1.438       .  A
C2369      H2376   1.082       .  S
C2371      C2372   1.437       .  A
C2371      C2378   1.518       .  S
C2372      H2377   1.082       .  S
C2373      C2374   1.434       .  A
C2374      C2375   1.518       .  S
C2375      F2379   1.384       .  S
C2375      F2380   1.382       .  S
C2375      F2381   1.383       .  S
C2378      F2382   1.382       .  S
C2378      F2383   1.384       .  S
C2378      F2384   1.384       .  S
C2385      C3234   1.421       .  A
C2385      C2390   1.444       .  A
C2385      H2392   1.082   1_545  S
C2386      C3233   1.421       .  A
C2386      C2387   1.444       .  A
C2387      C2388   1.450       .  A
C2387      C2394   1.518       .  S
C2388      C2389   1.417       .  A
C2388      H2393   1.082       .  S
C2389      C3021   1.573       .  S
C2389      C3238   1.432       .  A
C2390      C3237   1.432       .  A
C2390      C2391   1.515   1_545  S
C2391      F2395   1.385       .  S
C2391      F2396   1.383       .  S
C2391      F2397   1.380   1_565  S
C2394      F2398   1.383       .  S
C2394      F2399   1.383       .  S
C2394      F2400   1.384       .  S
C2401      C3250   1.419       .  A
C2401      C2406   1.443       .  A
C2401      H2408   1.081       .  S
C2402      C3249   1.420   1_545  A
C2402      C2403   1.438       .  A
C2403      C2404   1.448       .  A
C2403      C2410   1.517       .  S
C2404      C2405   1.420       .  A
C2404      H2409   1.082       .  S
C2405      C3254   1.433   1_545  A
C2406      C3253   1.433       .  A
C2406      C2407   1.514       .  S
C2407      F2411   1.384       .  S
C2407      F2412   1.382       .  S
C2407      F2413   1.381       .  S
C2410      F2414   1.383       .  S
C2410      F2415   1.384       .  S
C2410      F2416   1.384       .  S
C2417      C2422   1.418       .  A
C2417      H2424   1.082       .  S
C2418      C2419   1.431       .  A
C2419      C2420   1.417       .  A
C2419      C2426   1.519   1_455  S
C2420      C2421   1.401       .  A
C2420      H2425   1.083   1_455  S
C2422      C2423   1.516       .  S
C2423      F2427   1.385       .  S
C2423      F2428   1.382       .  S
C2426      F2431   1.383       .  S
C2426      F2432   1.385       .  S
C2433      C2438   1.417       .  A
C2433      H2440   1.083       .  S
C2434      C2435   1.423   1_655  A
C2435      C2436   1.415       .  A
C2435      C2442   1.519       .  S
C2436      C2437   1.406   1_455  A
C2436      H2441   1.083       .  S
C2438      C2439   1.519       .  S
C2439      F2443   1.385       .  S
C2439      F2444   1.383       .  S
C2442      F2447   1.382       .  S
C2442      F2448   1.385       .  S
C2449      C2450   1.397       .  A
C2449      C2454   1.400       .  A
C2449      H2456   1.084       .  S
C2451      C2452   1.400       .  A
C2451      C2458   1.519       .  S
C2452      H2457   1.084       .  S
C2453      C2454   1.424       .  A
C2454      C2455   1.523       .  S
C2455      F2459   1.385       .  S
C2455      F2460   1.383       .  S
C2455      F2461   1.383       .  S
C2458      F2462   1.382       .  S
C2458      F2463   1.383       .  S
C2458      F2464   1.385       .  S
C2465      C2470   1.402       .  A
C2465      H2472   1.078       .  S
C2467      C2468   1.402       .  A
C2467      C2474   1.521   1_654  S
C2468      H2473   1.083   1_654  S
C2470      C2471   1.520       .  S
C2471      F2475   1.385       .  S
C2471      F2476   1.382       .  S
C2471      F2477   1.383       .  S
C2474      F2478   1.384       .  S
C2474      F2479   1.383       .  S
C2474      F2480   1.385       .  S
C2481      C2482   1.396       .  A
C2481      C2486   1.395       .  A
C2481      H2488   1.084       .  S
C2482      C2907   1.409   1_545  A
C2483      C2906   1.410       .  A
C2483      C2484   1.401       .  A
C2483      C2490   1.520       .  S
C2484      C2909   1.408       .  A
C2484      H2489   1.082       .  S
C2485      C2908   1.407   1_545  A
C2485      C2486   1.421       .  A
C2486      C2487   1.521       .  S
C2487      F2491   1.383       .  S
C2487      F2492   1.382       .  S
C2487      F2493   1.385       .  S
C2490      F2494   1.384       .  S
C2490      F2495   1.383       .  S
C2490      F2496   1.385       .  S
C2497      C2922   1.404       .  A
C2497      C2502   1.398       .  A
C2497      H2504   1.083       .  S
C2498      C3019   1.464       .  S
C2498      C2921   1.402       .  A
C2498      C2499   1.416       .  A
C2499      C2500   1.394       .  A
C2499      C2506   1.515       .  S
C2500      C2501   1.396       .  A
C2500      H2505   1.085       .  S
C2501      C2926   1.411       .  A
C2502      C2925   1.410       .  A
C2502      C2503   1.519       .  S
C2503      F2507   1.384       .  S
C2503      F2508   1.383       .  S
C2503      F2509   1.383   1_554  S
C2506      F2510   1.382       .  S
C2506      F2511   1.382       .  S
C2506      F2512   1.385       .  S
C2513      C2518   1.408       .  A
C2513      H2520   1.083       .  S
C2514      C2515   1.413       .  A
C2515      C2516   1.396       .  A
C2515      C2522   1.519   1_455  S
C2516      C2517   1.400       .  A
C2516      H2521   1.084   1_455  S
C2518      C3367   1.518       .  S
C2519      C3366   1.517       .  S
C2519      F2523   1.385       .  S
C2519      F2524   1.382       .  S
C2519      F3373   1.382       .  S
C2522      F2526   1.380       .  S
C2522      F2527   1.383   1_655  S
C2522      F2528   1.385       .  S
F2525      C3367   1.382       .  S
C2529      C2530   1.400       .  A
C2529      C2534   1.393       .  A
C2529      H2536   1.082       .  S
C2531      C3380   1.406       .  A
C2531      C2538   1.518       .  S
C2532      C3379   1.404       .  A
C2532      H3385   1.083       .  S
C2533      C2534   1.413   1_545  A
C2534      C2535   1.522       .  S
C2535      F2539   1.385       .  S
C2535      F2540   1.382       .  S
C2535      F2541   1.384       .  S
H2537      C3380   1.083       .  S
C2538      F3390   1.383       .  S
C2538      F2543   1.382       .  S
C2538      F2544   1.385       .  S
F2542      C3386   1.384       .  S
O2545     Ni2551   1.921       .  S
O2545      C2990   1.269   1_565  A
O2546     Ni2569   1.895       .  S
O2547      H2570   0.969       .  S
O2547     Ni2987   1.907       .  S
C2548      O2565   1.276       .  A
C2548      C2957   1.458       .  S
O2549     Ni2568   1.916   1_556  S
O2549      C2979   1.268       .  A
O2550     Ni2568   1.913       .  S
O2550      C2552   1.265       .  A
Ni2551     O2554   1.933       .  S
Ni2551     O2556   1.900       .  S
C2552      C2893   1.489       .  S
O2553     Ni2569   1.886   1_455  S
O2553      C2559   1.269       .  A
C2555      O2973   1.267       .  A
C2555      C2906   1.453       .  S
O2556      C2558   1.263       .  A
O2557     Ni2568   1.920       .  S
C2558      C2877   1.475       .  S
C2559      C2938   1.455       .  S
H2560      O2561   0.966       .  S
O2561     Ni2993   1.898   1_554  S
O2562     Ni2563   1.905       .  S
Ni2563     O2567   1.881       .  S
Ni2563     O2565   1.909       .  S
Ni2563     O2971   1.911   1_554  S
O2564     Ni2569   1.919   1_455  S
C2566      O2969   1.267   1_545  A
C2566      C2925   1.447       .  S
Ni2569     O2985   1.899       .  S
O2571     Ni2579   1.902       .  S
O2574     Ni2579   1.935       .  S
O2575      C2584   1.282   1_655  A
O2576     Ni2580   1.934       .  S
O2576      C2583   1.284   1_655  A
O2577     Ni2580   1.897       .  S
O2577      C2582   1.280   1_655  A
O2578      C2581   1.279       .  A
C2582      C2941   1.456       .  S
C2583      C2845   1.495       .  S
C2584      C2861   1.517       .  S
O2585     Ni2593   1.897       .  S
O2585      C3019   1.276       .  A
O2586     Ni2593   1.896       .  S
O2586      C2596   1.275       .  A
O2587     Ni2593   1.997       .  S
O2587      C2597   1.297       .  A
O2588     Ni3017   1.997   1_554  S
O2588      C2598   1.297       .  A
O2589     Ni2594   2.002   1_554  S
O2590     Ni3018   1.990       .  S
O2591     Ni2594   1.883       .  S
O2592     Ni2594   1.888   1_554  S
Ni2593     O3012   1.991       .  S
Ni2594     O3014   1.993       .  S
C2595      O3009   1.279       .  A
C2596      C2909   1.475       .  S
C2598      C2826   1.577       .  S
O2599     Ni2607   1.917       .  S
O2599      C2609   1.282       .  A
O2600     Ni2607   1.915       .  S
O2600      C2610   1.280       .  A
O2601     Ni2607   1.972       .  S
O2601      C2611   1.292       .  A
O2602      C2612   1.291       .  A
O2603     Ni2608   1.975       .  S
O2603      C3036   1.293       .  A
O2604      C3035   1.293       .  A
O2605     Ni2608   1.906       .  S
O2606     Ni2608   1.914       .  S
C2610      C2874   1.460       .  S
C2611      O3028   1.294       .  A
C2611      C3218   1.559       .  S
C2612      O3027   1.293       .  A
C2612      C2778   1.556       .  S
O2613     Ni2621   1.899   1_655  S
O2613      C2623   1.274       .  A
O2614      C2624   1.279       .  A
O2615     Ni2621   1.943       .  S
O2615      C2625   1.286       .  A
O2616     Ni2621   1.945       .  S
O2616      C2626   1.287       .  A
O2617     Ni2622   1.931       .  S
O2618     Ni2622   1.936       .  S
O2619     Ni2622   1.902       .  S
O2619      C2624   1.276       .  A
O2620      C2623   1.279       .  A
C2623      C2762   1.448       .  S
C2624      C2749   1.464       .  S
C2625      C2842   1.510       .  S
C2626      C2858   1.498       .  S
O2627     Ni2633   1.919       .  S
O2627      C2648   1.274       .  A
O2628     Ni2651   1.881       .  S
O2628      C2637   1.259       .  A
O2629      H2652   0.966       .  S
O2629     Ni2633   1.907       .  S
O2629     Ni2651   1.880       .  S
O2629     Ni2645   1.894       .  S
C2630      O2647   1.263       .  A
C2630      O2639   1.260       .  A
C2630      C2730   1.464       .  S
O2631     Ni2650   1.897       .  S
O2631      C2637   1.265       .  A
O2632     Ni2650   1.895       .  S
O2632      C2634   1.272       .  A
Ni2633     O2636   1.946       .  S
Ni2633     O2638   1.894       .  S
C2634      O2644   1.288       .  A
C2634      C2698   1.479       .  S
O2635     Ni2651   1.871       .  S
O2635      C2641   1.263       .  A
O2636      C2641   1.275       .  A
C2637      C2746   1.448       .  S
O2638      C2640   1.265       .  A
O2639     Ni2650   1.914       .  S
C2640      O2646   1.269       .  A
C2640      C2685   1.478       .  S
C2641      C2714   1.484       .  S
H2642      O2643   0.968       .  S
O2643     Ni2651   1.917       .  S
O2643     Ni2645   1.886       .  S
O2643     Ni2650   1.904       .  S
O2644     Ni2645   1.958       .  S
Ni2645     O2649   1.885       .  S
Ni2645     O2647   1.895       .  S
O2646     Ni2651   1.935       .  S
C2648      O2649   1.264       .  A
C2648      C2765   1.464       .  S
O2653     Ni3085   1.894       .  S
O2653      C2663   1.276       .  A
O2654     Ni2661   1.906   1_554  S
O2654      C2664   1.277       .  A
O2655     Ni2661   1.971       .  S
O2655      C2665   1.292   1_556  A
O2656     Ni2661   1.969       .  S
O2656      C3090   1.291   1_556  A
O2657     Ni2662   1.975       .  S
O2657      C2666   1.293       .  A
O2658     Ni2662   1.975       .  S
O2658      C3089   1.293       .  A
O2659     Ni3086   1.893       .  S
O2659      C2664   1.277       .  A
O2660     Ni2662   1.901       .  S
O2660      C2663   1.276       .  A
Ni2661     O3077   1.899       .  S
Ni2661    Ni3086   2.380   1_556  S
Ni2662     O3083   1.894       .  S
Ni2662    Ni3085   2.381       .  S
C2663      C2733   1.445       .  S
C2664      C2717   1.455       .  S
C2665      O3082   1.293       .  A
C2665      C2797   1.554       .  S
C2666      O3080   1.292       .  A
C2666      C2781   1.549       .  S
O2667      C2677   1.280       .  A
O2668     Ni2675   1.923   1_565  S
O2668      C2678   1.281       .  A
O2669     Ni2675   1.989       .  S
O2669      C2679   1.295       .  A
O2670      C2680   1.295       .  A
O2671     Ni2676   2.001       .  S
O2671      C2680   1.298       .  A
O2672      C2679   1.298       .  A
O2673      C2678   1.275       .  A
O2674     Ni2676   1.902       .  S
O2674      C2677   1.276       .  A
C2677      C2682   1.470       .  S
C2678      C2701   1.472       .  S
C2679      C2810   1.580       .  S
C2680      C2829   1.579       .  S
C2681      C2682   1.400       .  A
C2681      C2686   1.404       .  A
C2681      H2688   1.083       .  S
C2682      C2683   1.416       .  A
C2683      C2684   1.402       .  A
C2683      C2690   1.521       .  S
C2684      C2685   1.405       .  A
C2684      H2689   1.083       .  S
C2685      C2686   1.422       .  A
C2686      C2687   1.521       .  S
C2687      F2691   1.385       .  S
C2687      F2692   1.381       .  S
C2687      F2693   1.381       .  S
C2690      F2694   1.382       .  S
C2690      F2695   1.382       .  S
C2690      F2696   1.385       .  S
C2697      C2698   1.403       .  A
C2697      C2702   1.400       .  A
C2697      H2704   1.083       .  S
C2698      C2699   1.422       .  A
C2699      C2700   1.408       .  A
C2699      C2706   1.521       .  S
C2700      C2701   1.401       .  A
C2700      H2705   1.082       .  S
C2701      C2702   1.416       .  A
C2702      C2703   1.521       .  S
C2703      F2707   1.385       .  S
C2703      F2708   1.382       .  S
C2703      F2709   1.382       .  S
C2706      F2710   1.383       .  S
C2706      F2711   1.384       .  S
C2706      F2712   1.385       .  S
C2713      C2714   1.412       .  A
C2713      C2718   1.390       .  A
C2713      H2720   1.084       .  S
C2714      C2715   1.424       .  A
C2715      C2716   1.407       .  A
C2715      C2722   1.521       .  S
C2716      C2717   1.402       .  A
C2716      H2721   1.084       .  S
C2717      C2718   1.403       .  A
C2718      C2719   1.516       .  S
C2719      F2723   1.383       .  S
C2719      F2724   1.383       .  S
C2719      F2725   1.383       .  S
C2722      F2726   1.383       .  S
C2722      F2727   1.383       .  S
C2722      F2728   1.385       .  S
C2729      C2730   1.403       .  A
C2729      C2734   1.394       .  A
C2729      H2736   1.085       .  S
C2730      C2731   1.422       .  A
C2731      C2732   1.398       .  A
C2731      C2738   1.524       .  S
C2732      C2733   1.396       .  A
C2732      H2737   1.084       .  S
C2733      C2734   1.410       .  A
C2734      C2735   1.517       .  S
C2735      F2739   1.384       .  S
C2735      F2740   1.383       .  S
C2735      F2741   1.382       .  S
C2738      F2742   1.384       .  S
C2738      F2743   1.383       .  S
C2738      F2744   1.385       .  S
C2745      C2746   1.396       .  A
C2745      C2750   1.400       .  A
C2745      H2752   1.084       .  S
C2746      C2747   1.413       .  A
C2747      C2748   1.393       .  A
C2747      C2754   1.523       .  S
C2748      C2749   1.402       .  A
C2748      H2753   1.084       .  S
C2749      C2750   1.420       .  A
C2750      C2751   1.518       .  S
C2751      F2755   1.384       .  S
C2751      F2756   1.381       .  S
C2751      F2757   1.383       .  S
C2754      F2758   1.383       .  S
C2754      F2759   1.383       .  S
C2754      F2760   1.385       .  S
C2761      C2762   1.403       .  A
C2761      C2766   1.403       .  A
C2761      H2768   1.084       .  S
C2762      C2763   1.403       .  A
C2763      C2764   1.395       .  A
C2763      C2770   1.518       .  S
C2764      C2765   1.407       .  A
C2764      H2769   1.084       .  S
C2765      C2766   1.411       .  A
C2766      C2767   1.515       .  S
C2767      F2771   1.385       .  S
C2767      F2772   1.383       .  S
C2767      F2773   1.383       .  S
C2770      F2774   1.383       .  S
C2770      F2775   1.383       .  S
C2770      F2776   1.385       .  S
C2777      C3202   1.418   1_554  A
C2777      C2782   1.438       .  A
C2777      H2784   1.082       .  S
C2778      C3201   1.417       .  A
C2778      C2779   1.436       .  A
C2779      C2780   1.435       .  A
C2779      C2786   1.518       .  S
C2780      C2781   1.413       .  A
C2780      H2785   1.082       .  S
C2781      C3206   1.431       .  A
C2782      C3205   1.432       .  A
C2782      C2783   1.517       .  S
C2783      F2787   1.385       .  S
C2783      F2788   1.380       .  S
C2783      F2789   1.382       .  S
C2786      F2790   1.385       .  S
C2786      F2791   1.383       .  S
C2786      F2792   1.383       .  S
C2793      C2794   1.416   1_556  A
C2793      C2798   1.436       .  A
C2793      H2800   1.082       .  S
C2794      C3035   1.557       .  S
C2794      C3219   1.434       .  A
C2795      C3218   1.433       .  A
C2795      C2796   1.438       .  A
C2795      C2802   1.518       .  S
C2796      C3221   1.417       .  A
C2796      H2801   1.082       .  S
C2797      C3220   1.415       .  A
C2797      C2798   1.432   1_554  A
C2798      C2799   1.518       .  S
C2799      F2803   1.384       .  S
C2799      F2804   1.382       .  S
C2799      F2805   1.384       .  S
C2802      F2806   1.382       .  S
C2802      F2807   1.384       .  S
C2802      F2808   1.384       .  S
C2809      C2814   1.446       .  A
C2809      H2816   1.082       .  S
C2810      C2811   1.440       .  A
C2811      C2812   1.447       .  A
C2811      C2818   1.517       .  S
C2812      C2813   1.417       .  A
C2812      H2817   1.082       .  S
C2814      C2815   1.516       .  S
C2815      F2819   1.384       .  S
C2815      F2820   1.382       .  S
C2815      F2821   1.382       .  S
C2818      F2822   1.382       .  S
C2818      F2823   1.382       .  S
C2818      F2824   1.384       .  S
C2825      C2830   1.446       .  A
C2825      H2832   1.078       .  S
C2826      C2827   1.434       .  A
C2827      C2828   1.450       .  A
C2827      C2834   1.515       .  S
C2828      C2829   1.423       .  A
C2828      H2833   1.082       .  S
C2830      C2831   1.516       .  S
C2831      F2835   1.384       .  S
C2831      F2836   1.383       .  S
C2831      F2837   1.381       .  S
C2834      F2838   1.382       .  S
C2834      F2839   1.384       .  S
C2834      F2840   1.385       .  S
C2841      C2846   1.419       .  A
C2841      H2848   1.082       .  S
C2842      C2843   1.426       .  A
C2843      C2844   1.419       .  A
C2843      C2850   1.518       .  S
C2844      C2845   1.404       .  A
C2844      H2849   1.083       .  S
C2846      C2847   1.519       .  S
C2847      F2851   1.385       .  S
C2847      F2852   1.383       .  S
C2850      F2855   1.383       .  S
C2850      F2856   1.385       .  S
C2857      C2862   1.420       .  A
C2857      H2864   1.083       .  S
C2858      C2859   1.418       .  A
C2859      C2860   1.412       .  A
C2859      C2866   1.519       .  S
C2860      C2861   1.410       .  A
C2860      H2865   1.082       .  S
C2862      C2863   1.520       .  S
C2863      F2867   1.385       .  S
C2863      F2868   1.383       .  S
C2866      F2871   1.382       .  S
C2866      F2872   1.385       .  S
C2873      C2874   1.399       .  A
C2873      C2878   1.403       .  A
C2873      H2880   1.084       .  S
C2875      C2876   1.405       .  A
C2875      C2882   1.518   1_556  S
C2876      H2881   1.083   1_556  S
C2877      C2878   1.422       .  A
C2878      C2879   1.522       .  S
C2879      F2883   1.385       .  S
C2879      F2884   1.383       .  S
C2879      F2885   1.383       .  S
C2882      F2886   1.382       .  S
C2882      F2887   1.384   1_554  S
C2882      F2888   1.385       .  S
C2889      C2894   1.405       .  A
C2889      H2896   1.083       .  S
C2890      C3315   1.417   1_655  A
C2891      C3314   1.420   1_455  A
C2891      C2892   1.402   1_455  A
C2891      C2898   1.521       .  S
C2892      C3317   1.398       .  A
C2892      H2897   1.084   1_655  S
C2893      C3316   1.408   1_655  A
C2894      C2895   1.521       .  S
C2895      F2899   1.385       .  S
C2895      F2900   1.384       .  S
C2895      F2901   1.383       .  S
C2898      F2902   1.383   1_455  S
C2898      F2903   1.384       .  S
C2898      F2904   1.384       .  S
C2905      C2906   1.395       .  A
C2905      C2910   1.397       .  A
C2905      H2912   1.084       .  S
C2907      C2908   1.391       .  A
C2907      C2914   1.524       .  S
C2908      H2913   1.082       .  S
C2909      C2910   1.423       .  A
C2910      C2911   1.521       .  S
C2911      F2915   1.383       .  S
C2911      F2916   1.383       .  S
C2911      F2917   1.385       .  S
C2914      F2918   1.384   1_556  S
C2914      F2919   1.381       .  S
C2914      F2920   1.385       .  S
C2921      C2926   1.398       .  A
C2921      H2928   1.083       .  S
C2922      C2923   1.422   1_545  A
C2923      C2924   1.394       .  A
C2923      C2930   1.520       .  S
C2924      C2925   1.395   1_565  A
C2924      H2929   1.084       .  S
C2926      C2927   1.517       .  S
C2927      F2931   1.385       .  S
C2927      F2932   1.383       .  S
C2927      F2933   1.383       .  S
C2930      F2934   1.380       .  S
C2930      F2935   1.383       .  S
C2930      F2936   1.385       .  S
C2937      C2942   1.404       .  A
C2937      H2944   1.083   1_565  S
C2938      C2939   1.414       .  A
C2939      C2940   1.392       .  A
C2939      C2946   1.516       .  S
C2940      C2941   1.395       .  A
C2940      H2945   1.084       .  S
C2943      F2947   1.384       .  S
C2943      F2948   1.383       .  S
C2946      F2950   1.379   1_455  S
C2946      F2951   1.380       .  S
C2946      F2952   1.385   1_455  S
C2953      C2954   1.400       .  A
C2953      C2958   1.405       .  A
C2953      H2960   1.083       .  S
C2955      C2962   1.518       .  S
C2957      C2958   1.414       .  A
C2958      C2959   1.517       .  S
C2959      F2963   1.385       .  S
C2959      F2964   1.383       .  S
C2959      F2965   1.383       .  S
C2962      F2967   1.384       .  S
C2962      F2968   1.384   1_565  S
O2969     Ni2975   1.913   1_554  S
O2970     Ni2993   1.869       .  S
O2971      H2994   0.967       .  S
C2972      O2989   1.273       .  A
C2972      C3381   1.458       .  S
O2973     Ni2992   1.909       .  S
O2974     Ni2992   1.909       .  S
O2974      C2976   1.265       .  A
Ni2975     O2978   1.937       .  S
Ni2975     O2980   1.894       .  S
C2976      C3317   1.463       .  S
O2977     Ni2993   1.887       .  S
O2977      C2983   1.270   1_655  A
C2979      C3330   1.449       .  S
O2980      C2982   1.261       .  A
O2981     Ni2992   1.914       .  S
C2982      C3301   1.479       .  S
C2983      C3362   1.462       .  S
H2984      O2985   0.966       .  S
O2986     Ni2987   1.908       .  S
Ni2987     O2991   1.878       .  S
Ni2987     O2989   1.903       .  S
O2988     Ni2993   1.928       .  S
C2990      C3349   1.444       .  S
O2995     Ni3003   1.900       .  S
O2998     Ni3003   1.938       .  S
O2999      C3008   1.282   1_655  A
O3000     Ni3004   1.930       .  S
O3000      C3007   1.283   1_655  A
O3001     Ni3004   1.903       .  S
O3001      C3006   1.281   1_655  A
O3002      C3005   1.278       .  A
C3006      C3365   1.465       .  S
C3007      C3269   1.496       .  S
C3008      C3285   1.501       .  S
O3009     Ni3017   1.905   1_554  S
O3010     Ni3017   1.898       .  S
O3010      C3020   1.275       .  A
O3011     Ni3017   2.000       .  S
O3011      C3021   1.298       .  A
O3012      C3022   1.296       .  A
O3013     Ni3018   1.988       .  S
O3015     Ni3018   1.908       .  S
O3016     Ni3018   1.904       .  S
C3020      C3333   1.472       .  S
C3022      C3250   1.577       .  S
O3023     Ni3031   1.911       .  S
O3023      C3033   1.279   1_556  A
O3024     Ni3031   1.910       .  S
O3024      C3034   1.279       .  A
O3025     Ni3031   1.973       .  S
O3025      C3035   1.292   1_556  A
O3026      C3036   1.292   1_556  A
O3027     Ni3032   1.975       .  S
O3029     Ni3032   1.893       .  S
O3030     Ni3032   1.901       .  S
C3034      C3298   1.461       .  S
C3036      C3202   1.559   1_554  S
O3037     Ni3045   1.901   1_655  S
O3037      C3047   1.274       .  A
O3038      C3048   1.279       .  A
O3039     Ni3045   1.935       .  S
O3039      C3049   1.284       .  A
O3040     Ni3045   1.935       .  S
O3040      C3050   1.285       .  A
O3041     Ni3046   1.938       .  S
O3042     Ni3046   1.939       .  S
O3043     Ni3046   1.904       .  S
O3043      C3048   1.275       .  A
O3044      C3047   1.280       .  A
C3047      C3186   1.449       .  S
C3048      C3173   1.454       .  S
C3049      C3266   1.511       .  S
C3050      C3282   1.503       .  S
O3051     Ni3057   1.923       .  S
O3051      C3072   1.273       .  A
O3052     Ni3075   1.875       .  S
O3052      C3061   1.257       .  A
O3053      H3076   0.966       .  S
O3053     Ni3057   1.914       .  S
O3053     Ni3075   1.884       .  S
O3053     Ni3069   1.895       .  S
C3054      O3071   1.261       .  A
C3054      O3063   1.268       .  A
C3054      C3154   1.484       .  S
O3055     Ni3074   1.917       .  S
O3055      C3061   1.271       .  A
O3056     Ni3074   1.896       .  S
O3056      C3058   1.270       .  A
Ni3057     O3060   1.943       .  S
Ni3057     O3062   1.897       .  S
C3058      O3068   1.282       .  A
C3058      C3122   1.482       .  S
O3059     Ni3075   1.877       .  S
O3059      C3065   1.263       .  A
O3060      C3065   1.273       .  A
C3061      C3170   1.447       .  S
O3062      C3064   1.266       .  A
O3063     Ni3074   1.941       .  S
C3064      O3070   1.271       .  A
C3064      C3109   1.471       .  S
C3065      C3138   1.477       .  S
H3066      O3067   0.968       .  S
O3067     Ni3075   1.917       .  S
O3067     Ni3069   1.886       .  S
O3067     Ni3074   1.914       .  S
O3068     Ni3069   1.953       .  S
Ni3069     O3073   1.878       .  S
Ni3069     O3071   1.881       .  S
O3070     Ni3075   1.941       .  S
C3072      O3073   1.260       .  A
C3072      C3189   1.456       .  S
O3077      C3087   1.277       .  A
O3078     Ni3085   1.906       .  S
O3078      C3088   1.276       .  A
O3079     Ni3085   1.981       .  S
O3079      C3089   1.294       .  A
O3080     Ni3085   1.968       .  S
O3081     Ni3086   1.984       .  S
O3081      C3090   1.295       .  A
O3082     Ni3086   1.977       .  S
O3083      C3088   1.277       .  A
O3084     Ni3086   1.906   1_556  S
O3084      C3087   1.277       .  A
C3087      C3157   1.457       .  S
C3088      C3141   1.453       .  S
C3089      C3221   1.560       .  S
C3090      C3205   1.555       .  S
O3091      C3101   1.279       .  A
O3092     Ni3099   1.913   1_565  S
O3092      C3102   1.279       .  A
O3093     Ni3099   1.988       .  S
O3093      C3103   1.295       .  A
O3094      C3104   1.294       .  A
O3095     Ni3100   2.001       .  S
O3095      C3104   1.298       .  A
O3096      C3103   1.297       .  A
O3097      C3102   1.279       .  A
O3098     Ni3100   1.905       .  S
O3098      C3101   1.277       .  A
C3101      C3106   1.464       .  S
C3102      C3125   1.475       .  S
C3103      C3234   1.581       .  S
C3104      C3253   1.574       .  S
C3105      C3106   1.399       .  A
C3105      C3110   1.404       .  A
C3105      H3112   1.084       .  S
C3106      C3107   1.412       .  A
C3107      C3108   1.403       .  A
C3107      C3114   1.519       .  S
C3108      C3109   1.403       .  A
C3108      H3113   1.084       .  S
C3109      C3110   1.420       .  A
C3110      C3111   1.520       .  S
C3111      F3115   1.385       .  S
C3111      F3116   1.380       .  S
C3111      F3117   1.381       .  S
C3114      F3118   1.382       .  S
C3114      F3119   1.383       .  S
C3114      F3120   1.385       .  S
C3121      C3122   1.405       .  A
C3121      C3126   1.406       .  A
C3121      H3128   1.083       .  S
C3122      C3123   1.421       .  A
C3123      C3124   1.405       .  A
C3123      C3130   1.520       .  S
C3124      C3125   1.401       .  A
C3124      H3129   1.082       .  S
C3125      C3126   1.417       .  A
C3126      C3127   1.520       .  S
C3127      F3131   1.385       .  S
C3127      F3132   1.382       .  S
C3127      F3133   1.382       .  S
C3130      F3134   1.383       .  S
C3130      F3135   1.384       .  S
C3130      F3136   1.385       .  S
C3137      C3138   1.410       .  A
C3137      C3142   1.393       .  A
C3137      H3144   1.084       .  S
C3138      C3139   1.420       .  A
C3139      C3140   1.406       .  A
C3139      C3146   1.521       .  S
C3140      C3141   1.402       .  A
C3140      H3145   1.084       .  S
C3141      C3142   1.404       .  A
C3142      C3143   1.517       .  S
C3143      F3147   1.383       .  S
C3143      F3148   1.384       .  S
C3143      F3149   1.383       .  S
C3146      F3150   1.382       .  S
C3146      F3151   1.384       .  S
C3146      F3152   1.385       .  S
C3153      C3154   1.411       .  A
C3153      C3158   1.397       .  A
C3153      H3160   1.083       .  S
C3154      C3155   1.424       .  A
C3155      C3156   1.406       .  A
C3155      C3162   1.520       .  S
C3156      C3157   1.399       .  A
C3156      H3161   1.084       .  S
C3157      C3158   1.406       .  A
C3158      C3159   1.520       .  S
C3159      F3163   1.384       .  S
C3159      F3164   1.382       .  S
C3159      F3165   1.384       .  S
C3162      F3166   1.383       .  S
C3162      F3167   1.384       .  S
C3162      F3168   1.385       .  S
C3169      C3170   1.399       .  A
C3169      C3174   1.402       .  A
C3169      H3176   1.084       .  S
C3170      C3171   1.410       .  A
C3171      C3172   1.392       .  A
C3171      C3178   1.520       .  S
C3172      C3173   1.399       .  A
C3172      H3177   1.084       .  S
C3173      C3174   1.413       .  A
C3174      C3175   1.516       .  S
C3175      F3179   1.385       .  S
C3175      F3180   1.383       .  S
C3175      F3181   1.383       .  S
C3178      F3182   1.382       .  S
C3178      F3183   1.381       .  S
C3178      F3184   1.385       .  S
C3185      C3186   1.400       .  A
C3185      C3190   1.400       .  A
C3185      H3192   1.084       .  S
C3186      C3187   1.409       .  A
C3187      C3188   1.394       .  A
C3187      C3194   1.515       .  S
C3188      C3189   1.401       .  A
C3188      H3193   1.085       .  S
C3189      C3190   1.413       .  A
C3190      C3191   1.518       .  S
C3191      F3195   1.385       .  S
C3191      F3196   1.382       .  S
C3191      F3197   1.384       .  S
C3194      F3198   1.382       .  S
C3194      F3199   1.383       .  S
C3194      F3200   1.384       .  S
C3201      C3206   1.436       .  A
C3201      H3208   1.082       .  S
C3202      C3203   1.435       .  A
C3203      C3204   1.437       .  A
C3203      C3210   1.518       .  S
C3204      C3205   1.414   1_556  A
C3204      H3209   1.082       .  S
C3206      C3207   1.517       .  S
C3207      F3211   1.384       .  S
C3207      F3212   1.380       .  S
C3207      F3213   1.383       .  S
C3210      F3214   1.385       .  S
C3210      F3215   1.383       .  S
C3210      F3216   1.383       .  S
C3217      C3218   1.417       .  A
C3217      C3222   1.438       .  A
C3217      H3224   1.082       .  S
C3219      C3220   1.437       .  A
C3219      C3226   1.518       .  S
C3220      H3225   1.082       .  S
C3221      C3222   1.434       .  A
C3222      C3223   1.518       .  S
C3223      F3227   1.385       .  S
C3223      F3228   1.382       .  S
C3223      F3229   1.383       .  S
C3226      F3230   1.382       .  S
C3226      F3231   1.384       .  S
C3226      F3232   1.384       .  S
C3233      C3238   1.444       .  A
C3233      H3240   1.082       .  S
C3234      C3235   1.442       .  A
C3235      C3236   1.447       .  A
C3235      C3242   1.518       .  S
C3236      C3237   1.416       .  A
C3236      H3241   1.082       .  S
C3238      C3239   1.514       .  S
C3239      F3243   1.384       .  S
C3239      F3244   1.382       .  S
C3239      F3245   1.379       .  S
C3242      F3246   1.383   1_545  S
C3242      F3247   1.382       .  S
C3242      F3248   1.384       .  S
C3249      C3254   1.443       .  A
C3249      H3256   1.082       .  S
C3250      C3251   1.439       .  A
C3251      C3252   1.449       .  A
C3251      C3258   1.517       .  S
C3252      C3253   1.420       .  A
C3252      H3257   1.082       .  S
C3254      C3255   1.515       .  S
C3255      F3259   1.384       .  S
C3255      F3260   1.382       .  S
C3255      F3261   1.382       .  S
C3258      F3262   1.383       .  S
C3258      F3263   1.384       .  S
C3258      F3264   1.384       .  S
C3265      C3270   1.416       .  A
C3265      H3272   1.082       .  S
C3266      C3267   1.428   1_455  A
C3267      C3268   1.416       .  A
C3267      C3274   1.519       .  S
C3268      C3269   1.402   1_655  A
C3268      H3273   1.083       .  S
C3270      C3271   1.516       .  S
C3271      F3275   1.385       .  S
C3271      F3276   1.382       .  S
C3274      F3279   1.383       .  S
C3274      F3280   1.385       .  S
C3281      C3286   1.415       .  A
C3281      H3288   1.083       .  S
C3282      C3283   1.424       .  A
C3283      C3284   1.416       .  A
C3283      C3290   1.520       .  S
C3284      C3285   1.406       .  A
C3284      H3289   1.083       .  S
C3286      C3287   1.520       .  S
C3287      F3291   1.385       .  S
C3287      F3292   1.382       .  S
C3290      F3295   1.383       .  S
C3290      F3296   1.385       .  S
C3297      C3298   1.397       .  A
C3297      C3302   1.402       .  A
C3297      H3304   1.084       .  S
C3299      C3300   1.399       .  A
C3299      C3306   1.519       .  S
C3300      H3305   1.083       .  S
C3301      C3302   1.423       .  A
C3302      C3303   1.522       .  S
C3303      F3307   1.385       .  S
C3303      F3308   1.383       .  S
C3303      F3309   1.383       .  S
C3306      F3310   1.382       .  S
C3306      F3311   1.383       .  S
C3306      F3312   1.384       .  S
C3313      C3318   1.405       .  A
C3313      H3320   1.083       .  S
C3315      C3316   1.405       .  A
C3315      C3322   1.520   1_554  S
C3316      H3321   1.083   1_554  S
C3318      C3319   1.518       .  S
C3319      F3323   1.384       .  S
C3319      F3324   1.383       .  S
C3319      F3325   1.384       .  S
C3322      F3326   1.384       .  S
C3322      F3327   1.382       .  S
C3322      F3328   1.385       .  S
C3329      C3330   1.398       .  A
C3329      C3334   1.397       .  A
C3329      H3336   1.084       .  S
C3331      C3332   1.400       .  A
C3331      C3338   1.520       .  S
C3332      H3337   1.082       .  S
C3333      C3334   1.422       .  A
C3334      C3335   1.522       .  S
C3335      F3339   1.383       .  S
C3335      F3340   1.381       .  S
C3335      F3341   1.385       .  S
C3338      F3342   1.384       .  S
C3338      F3343   1.383       .  S
C3338      F3344   1.384       .  S
C3345      C3350   1.399       .  A
C3345      H3352   1.083       .  S
C3346      C3347   1.416       .  A
C3347      C3348   1.397       .  A
C3347      C3354   1.518   1_545  S
C3348      C3349   1.396       .  A
C3348      H3353   1.084   1_545  S
C3350      C3351   1.519       .  S
C3351      F3355   1.384       .  S
C3351      F3356   1.383       .  S
C3351      F3357   1.384   1_554  S
C3354      F3358   1.382   1_565  S
C3354      F3359   1.381       .  S
C3354      F3360   1.385       .  S
C3361      C3366   1.408       .  A
C3361      H3368   1.083       .  S
C3362      C3363   1.415       .  A
C3363      C3364   1.395       .  A
C3363      C3370   1.519   1_455  S
C3364      C3365   1.398       .  A
C3364      H3369   1.084   1_455  S
C3367      F3371   1.385       .  S
C3367      F3372   1.382       .  S
C3370      F3374   1.378       .  S
C3370      F3375   1.382   1_655  S
C3370      F3376   1.385       .  S
C3377      C3378   1.399       .  A
C3377      C3382   1.393       .  A
C3377      H3384   1.082       .  S
C3379      C3386   1.518       .  S
C3381      C3382   1.413       .  A
C3382      C3383   1.522       .  S
C3383      F3387   1.385       .  S
C3383      F3388   1.382       .  S
C3383      F3389   1.384       .  S
C3386      F3391   1.382       .  S
C3386      F3392   1.385       .  S
