geometry optimzed in LAMMPS
_audit_creation_date              2020-11-30 
_audit_creation_method            'lammps2cif' 
_symmetry_space_group_name_H-M    'P1' 
_symmetry_Int_Tables_number       1 
_symmetry_cell_setting            triclinic 
loop_ 
_symmetry_equiv_pos_as_xyz 
  x,y,z 
_cell_length_a                    37.20745647215822 
_cell_length_b                    37.23011775247395 
_cell_length_c                    36.968821107207695 
_cell_angle_alpha                 90.09717980124941 
_cell_angle_beta                  89.85651897208446 
_cell_angle_gamma                 90.24974456907366 
loop_ 
_atom_site_label 
_atom_site_type_symbol 
_atom_site_fract_x 
_atom_site_fract_y 
_atom_site_fract_z 
_atom_site_charge 
C1          C  0.10770803  0.86294756  0.53300532     0.01570
C2          C  0.08802515  0.85901399  0.50011042     0.01570
C3          C  0.10576396  0.86917009  0.46777829     0.01570
C4          C  0.13420673  0.89539150  0.46891117     0.01570
C5          C  0.14604696  0.90954197  0.50321578     0.01570
C6          C  0.13600132  0.88941243  0.53490111     0.01570
C7          C  0.13139303  0.08600584  0.47024657     0.01570
C8          C  0.13528146  0.06728490  0.50384669     0.01570
C9          C  0.12696170  0.08670073  0.53618674     0.01570
C10         C  0.10020088  0.11474895  0.53375388     0.01570
C11         C  0.08525621  0.12368517  0.49884775     0.01570
C12         C  0.10614596  0.11477368  0.46755033     0.01570
C13         C  0.90578009  0.11066700  0.52784018     0.01570
C14         C  0.92689263  0.11155531  0.49563479     0.01570
C15         C  0.91044279  0.09927958  0.46289965     0.01570
C16         C  0.87939357  0.07643419  0.46443934     0.01570
C17         C  0.86872265  0.06269829  0.49837961     0.01570
C18         C  0.87667475  0.08481430  0.52923721     0.01570
C19         C  0.90905787  0.85473877  0.46316464     0.01570
C20         C  0.92772834  0.84248182  0.49465678     0.01570
C21         C  0.90877383  0.84950798  0.52803065     0.01570
C22         C  0.88960182  0.88366818  0.53051444     0.01570
C23         C  0.88183921  0.90329908  0.49841722     0.01570
C24         C  0.88463619  0.88434485  0.46546568     0.01570
C25         C  0.52917872  0.08529398  0.12775568     0.01570
C26         C  0.53328974  0.11261453  0.10105729     0.01570
C27         C  0.50352194  0.11648172  0.07656040     0.01570
C28         C  0.46863554  0.10821801  0.09154743     0.01570
C29         C  0.46482331  0.08027110  0.11830493     0.01570
C30         C  0.49714436  0.06434159  0.13215916     0.01570
C31         C  0.47684733  0.11792170  0.89607748     0.01570
C32         C  0.51001809  0.12699632  0.91386257     0.01570
C33         C  0.54250044  0.11920113  0.89307335     0.01570
C34         C  0.54093246  0.08974060  0.86699234     0.01570
C35         C  0.50713186  0.07326514  0.85900615     0.01570
C36         C  0.47621702  0.09394165  0.86594132     0.01570
C37         C  0.48087020  0.89386108  0.12504373     0.01570
C38         C  0.51396624  0.91223156  0.13359402     0.01570
C39         C  0.54672390  0.89687135  0.11959496     0.01570
C40         C  0.54576956  0.87320437  0.08888422     0.01570
C41         C  0.51154748  0.86461652  0.07374269     0.01570
C42         C  0.48035460  0.86813568  0.09598995     0.01570
C43         C  0.47420417  0.89449112  0.87932807     0.01570
C44         C  0.50581190  0.91420082  0.87219248     0.01570
C45         C  0.53739190  0.89313768  0.87106830     0.01570
C46         C  0.54169161  0.86462898  0.89697851     0.01570
C47         C  0.50959553  0.85251269  0.91535174     0.01570
C48         C  0.47679736  0.86138093  0.89827826     0.01570
C49         C  0.11964490  0.45482786  0.87190729     0.01570
C50         C  0.09604873  0.48499671  0.86790182     0.01570
C51         C  0.11043101  0.51993320  0.87686357     0.01570
C52         C  0.14129810  0.52203719  0.89939757     0.01570
C53         C  0.15347169  0.49077369  0.91751868     0.01570
C54         C  0.14732890  0.45731492  0.89946128     0.01570
C55         C  0.13522896  0.52218183  0.09860194     0.01570
C56         C  0.14088301  0.49027108  0.07829891     0.01570
C57         C  0.13450094  0.45734154  0.09755195     0.01570
C58         C  0.10452315  0.45690625  0.12247256     0.01570
C59         C  0.08643137  0.49011549  0.13111728     0.01570
C60         C  0.10607777  0.52289178  0.12392006     0.01570
C61         C  0.90422160  0.45350539  0.13430276     0.01570
C62         C  0.92542848  0.48574216  0.13445970     0.01570
C63         C  0.90572974  0.51822150  0.12852312     0.01570
C64         C  0.87662597  0.51792154  0.10350990     0.01570
C65         C  0.86852696  0.48474094  0.08623095     0.01570
C66         C  0.87574135  0.45275466  0.10706195     0.01570
C67         C  0.91298775  0.44846712  0.87348966     0.01570
C68         C  0.93570534  0.47832014  0.86878032     0.01570
C69         C  0.91599882  0.51064158  0.87414625     0.01570
C70         C  0.90216447  0.51455396  0.90806446     0.01570
C71         C  0.89269523  0.48228922  0.92748016     0.01570
C72         C  0.89028164  0.45012727  0.90548611     0.01570
N73         N  0.15791292  0.94544596  0.79307083    -0.06830
N74         N  0.12426173  0.93370982  0.79440400    -0.58950
N75         N  0.23426192  0.92473143  0.83440126    -0.06510
N76         N  0.24641803  0.89888920  0.85506662    -0.61080
N77         N  0.21418781  0.94700933  0.85326603    -0.06110
N78         N  0.21181409  0.93593520  0.88737519    -0.58930
N79         N  0.17791474  0.92285278  0.77448506    -0.05790
N80         N  0.15842720  0.89593618  0.76239041    -0.61430
C81         C  0.12508829  0.90304266  0.77458014     0.95350
C82         C  0.23270080  0.90607574  0.88800036     0.95120
N83         N  0.31310449  0.95303921  0.75968129    -0.07020
N84         N  0.34710398  0.95348385  0.76998924    -0.59530
N85         N  0.23803603  0.92472960  0.71586541    -0.05140
N86         N  0.21836210  0.90499439  0.69373217    -0.60780
N87         N  0.25571522  0.94949730  0.69776913    -0.07050
N88         N  0.24840320  0.94701798  0.66283985    -0.59800
N89         N  0.29523853  0.92803957  0.77736404    -0.04780
N90         N  0.31653402  0.91101197  0.80000902    -0.60870
Mn91       Mn  0.23660700  0.92422506  0.77524041     1.18440
C92         C  0.34875047  0.92688760  0.79483417     0.97430
C93         C  0.22558950  0.91864936  0.66064541     0.98090
N94         N  0.21211068  0.03330195  0.85280307    -0.07070
N95         N  0.21002977  0.04329226  0.88725005    -0.63370
N96         N  0.17437749  0.05467313  0.77389859    -0.05870
N97         N  0.15373054  0.07969924  0.76048756    -0.64050
N98         N  0.15539224  0.03156751  0.79300213    -0.06570
N99         N  0.12112053  0.04142361  0.79364252    -0.63640
N100        N  0.23074789  0.05703069  0.83403381    -0.05470
N101        N  0.24220564  0.08293395  0.85522474    -0.64330
Mn102      Mn  0.18385044  0.98937465  0.82405563     1.10660
C103        C  0.22952063  0.07414002  0.88824298     0.98650
C104        C  0.12068556  0.07130101  0.77258374     0.98730
N105        N  0.25294858  0.03333201  0.69713663    -0.06580
N106        N  0.24623704  0.03571501  0.66212658    -0.61950
N107        N  0.29126409  0.06062459  0.77449075    -0.05900
N108        N  0.31229367  0.08312897  0.79222442    -0.58680
N109        N  0.31039191  0.03695504  0.75656599    -0.07210
N110        N  0.34496177  0.04278105  0.76182819    -0.61520
N111        N  0.23429974  0.05734478  0.71515304    -0.06200
N112        N  0.21476870  0.07664272  0.69285784    -0.58710
Mn113      Mn  0.28421444  0.99294244  0.72669227     1.20190
Mn114      Mn  0.23270159  0.05817173  0.77453010     1.10090
Cl115      Cl  0.23432349  0.99121719  0.77522239    -0.86680
C116        C  0.22272602  0.06328772  0.65975771     0.95660
C117        C  0.34573900  0.07201569  0.78363004     0.95450
N118        N  0.05302324  0.13415581  0.79112803    -0.06830
N119        N  0.06290679  0.09998195  0.79268950    -0.58950
N120        N  0.07846080  0.20948437  0.83140343    -0.06510
N121        N  0.10480749  0.22075716  0.85214060    -0.61080
N122        N  0.05461921  0.19140698  0.85056232    -0.06110
N123        N  0.06490676  0.18971540  0.88492505    -0.58930
N124        N  0.07623022  0.15274125  0.77162828    -0.05790
N125        N  0.10150560  0.13173534  0.75900173    -0.61430
C126        C  0.09298665  0.09898548  0.77191479     0.95350
C127        C  0.09609677  0.20879858  0.88539295     0.95120
N128        N  0.05493094  0.28942158  0.75556877    -0.07020
N129        N  0.05882275  0.32397521  0.76341547    -0.59530
N130        N  0.07978178  0.21401221  0.71251341    -0.05140
N131        N  0.10136628  0.19819788  0.68899001    -0.60780
N132        N  0.05603824  0.23357289  0.69549193    -0.07050
N133        N  0.06107869  0.23205255  0.66038908    -0.59800
N134        N  0.07900069  0.27040838  0.77296871    -0.04780
N135        N  0.09955320  0.29143664  0.79273270    -0.60870
Mn136      Mn  0.07916579  0.21145392  0.77200695     1.18440
C137        C  0.08694577  0.32482488  0.78679906     0.97430
C138        C  0.08963669  0.21017636  0.65647720     0.98090
N139        N  0.96798017  0.19336557  0.85072723    -0.07070
N140        N  0.95761744  0.19200938  0.88512584    -0.63370
N141        N  0.94428192  0.15505357  0.77278550    -0.05870
N142        N  0.91805577  0.13522031  0.75994170    -0.64050
N143        N  0.96704346  0.13556635  0.79141086    -0.06570
N144        N  0.95608777  0.10166231  0.79199311    -0.63640
N145        N  0.94509804  0.21254227  0.83173153    -0.05470
N146        N  0.91940173  0.22497494  0.85270702    -0.64330
Mn147      Mn  0.01065700  0.16263392  0.82203049     1.10660
C148        C  0.92747918  0.21243794  0.88591703     0.98650
C149        C  0.92575193  0.10205518  0.77163976     0.98730
N150        N  0.97196463  0.22847631  0.69406223    -0.06580
N151        N  0.97149789  0.21776809  0.65979801    -0.61950
N152        N  0.94673038  0.27135583  0.77162001    -0.05900
N153        N  0.92801309  0.29402480  0.79148932    -0.58680
N154        N  0.97161852  0.28849899  0.75335549    -0.07210
N155        N  0.97054941  0.32302673  0.76044005    -0.61520
N156        N  0.94695943  0.21131354  0.71250985    -0.06200
N157        N  0.92930483  0.18870286  0.69135904    -0.58710
Mn158      Mn  0.01326973  0.26100914  0.72355892     1.20190
Mn159      Mn  0.94477998  0.21299470  0.77209812     1.10090
Cl160      Cl  0.01205915  0.21198258  0.77255518    -0.86680
C161        C  0.94468918  0.19284516  0.65849602     0.95660
C162        C  0.94313396  0.32630869  0.78399392     0.95450
N163        N  0.05510063  0.84124622  0.20600056    -0.06830
N164        N  0.06638460  0.87509279  0.20408547    -0.58950
N165        N  0.07980551  0.76461976  0.16741194    -0.06510
N166        N  0.10601537  0.75203847  0.14731125    -0.61080
N167        N  0.05700391  0.78299417  0.14755514    -0.06110
N168        N  0.06792637  0.78371893  0.11339994    -0.58930
N169        N  0.07739420  0.82241794  0.22598289    -0.05790
N170        N  0.10335751  0.84280898  0.23852711    -0.61430
C171        C  0.09628916  0.87553296  0.22512607     0.95350
C172        C  0.09830350  0.76373406  0.11379004     0.95120
N173        N  0.05444121  0.68647300  0.24356459    -0.07020
N174        N  0.05636277  0.65213925  0.23460962    -0.59530
N175        N  0.07560569  0.76470771  0.28630782    -0.05140
N176        N  0.09300299  0.78625627  0.30877677    -0.60780
N177        N  0.05066492  0.74644049  0.30366958    -0.07050
N178        N  0.05071193  0.75521929  0.33843602    -0.59800
N179        N  0.07899763  0.70503088  0.22604914    -0.04780
N180        N  0.09803896  0.68379501  0.20475735    -0.60870
Mn181      Mn  0.07887140  0.76401612  0.22665445     1.18440
C182        C  0.08411844  0.65078804  0.21091744     0.97430
C183        C  0.07772677  0.77964246  0.34132149     0.98090
N184        N  0.97054032  0.78253451  0.14383181    -0.07070
N185        N  0.95917605  0.78583175  0.10993116    -0.63370
N186        N  0.94460149  0.81991413  0.22075201    -0.05870
N187        N  0.91803801  0.83973900  0.23277539    -0.64050
N188        N  0.96833413  0.83976910  0.20332945    -0.06570
N189        N  0.95771368  0.87374447  0.20267721    -0.63640
N190        N  0.94792882  0.76226156  0.16216456    -0.05470
N191        N  0.92176176  0.75077488  0.14146796    -0.64330
Mn192      Mn  0.01285304  0.81277709  0.17412098     1.10660
C193        C  0.92891422  0.76518064  0.10899578     0.98650
C194        C  0.92649415  0.87316198  0.22177251     0.98730
N195        N  0.96689316  0.74410198  0.29877349    -0.06580
N196        N  0.96320721  0.75313751  0.33311874    -0.61950
N197        N  0.94764995  0.70268515  0.21974793    -0.05900
N198        N  0.93044038  0.68103899  0.19741907    -0.58680
N199        N  0.97135941  0.68488854  0.23888757    -0.07210
N200        N  0.97071851  0.65048654  0.22988077    -0.61520
N201        N  0.94286678  0.76079020  0.27909046    -0.06200
N202        N  0.92222109  0.78125992  0.29934764    -0.58710
Mn203      Mn  0.01082237  0.71426346  0.27262397     1.20190
Mn204      Mn  0.94506403  0.76116224  0.22058861     1.10090
Cl205      Cl  0.01194272  0.76320260  0.22347124    -0.86680
C206        C  0.93492294  0.77587689  0.33289606     0.95660
C207        C  0.94506400  0.64867725  0.20399200     0.95450
N208        N  0.31524108  0.74657175  0.04048012    -0.06830
N209        N  0.34950910  0.75649235  0.04102457    -0.58950
N210        N  0.23837171  0.70288305  0.06624122    -0.06510
N211        N  0.21921133  0.67968594  0.08557813    -0.61080
N212        N  0.25641362  0.68594192  0.04090291    -0.06110
N213        N  0.25005862  0.65106304  0.04259799    -0.58930
N214        N  0.29724811  0.76379436  0.06574259    -0.05790
N215        N  0.31880344  0.78560602  0.08382996    -0.61430
C216        C  0.35139567  0.78083129  0.06835152     0.95350
C217        C  0.22693970  0.64727189  0.07068112     0.95120
N218        N  0.16015873  0.78210110  0.04438915    -0.07020
N219        N  0.12624943  0.78358866  0.05537504    -0.59530
N220        N  0.23654793  0.82176506  0.06795989    -0.05140
N221        N  0.24841866  0.84228876  0.09432653    -0.60780
N222        N  0.21766095  0.84089163  0.04489444    -0.07050
N223        N  0.21593436  0.87483818  0.05574754    -0.59800
N224        N  0.17923046  0.76276229  0.06712608    -0.04780
N225        N  0.15881902  0.75035604  0.09330734    -0.60870
Mn226      Mn  0.23796603  0.76256220  0.06776501     1.18440
C227        C  0.12591856  0.76312247  0.08567619     0.97430
C228        C  0.23583500  0.87525727  0.08640100     0.98090
N229        N  0.25290965  0.68852036  0.95595471    -0.07070
N230        N  0.24274742  0.65451705  0.95351200    -0.63370
N231        N  0.29510220  0.76564272  0.93257742    -0.05870
N232        N  0.31694371  0.78595416  0.91324906    -0.64050
N233        N  0.31320100  0.74685007  0.95635446    -0.06570
N234        N  0.34785378  0.75403887  0.95379893    -0.63640
N235        N  0.23566325  0.70776959  0.93182912    -0.05470
N236        N  0.21363253  0.68757752  0.91259203    -0.64330
Mn237      Mn  0.28555999  0.71571749  0.99838967     1.10660
C238        C  0.21820694  0.65452171  0.92642212     0.98650
C239        C  0.34969872  0.77805517  0.92651033     0.98730
N240        N  0.21666524  0.84321681  0.95791364    -0.06580
N241        N  0.21369069  0.87710714  0.94705901    -0.61950
N242        N  0.17804675  0.76635644  0.93385711    -0.05900
N243        N  0.15752750  0.75394578  0.90789201    -0.58680
N244        N  0.15895871  0.78435271  0.95769464    -0.07210
N245        N  0.12475534  0.78523254  0.94759471    -0.61520
N246        N  0.23591368  0.82483247  0.93443019    -0.06200
N247        N  0.24690364  0.84561881  0.90796136    -0.58710
Mn248      Mn  0.18739651  0.81360494  0.00134496     1.20190
Mn249      Mn  0.23652697  0.76614729  0.93246059     1.10090
Cl250      Cl  0.23683350  0.76458482  0.00006195    -0.86680
C251        C  0.23333886  0.87812008  0.91602940     0.95660
C252        C  0.12445205  0.76549045  0.91666858     0.95450
N253        N  0.05705672  0.23234154  0.30329685    -0.06830
N254        N  0.06247813  0.22743456  0.33820882    -0.58950
N255        N  0.07473878  0.27473668  0.22446269    -0.06510
N256        N  0.08975284  0.29756487  0.20152479    -0.61080
N257        N  0.05017635  0.29107172  0.24402508    -0.06110
N258        N  0.04819046  0.32531854  0.23491547    -0.58930
N259        N  0.08167423  0.21551551  0.28435214    -0.05790
N260        N  0.10425718  0.19868532  0.30615697    -0.61430
C261        C  0.09249984  0.20697815  0.33993954     0.95350
C262        C  0.07334150  0.32918583  0.20869538     0.95120
N263        N  0.05269185  0.19645197  0.14659616    -0.07020
N264        N  0.06256411  0.19605654  0.11209607    -0.59530
N265        N  0.07951770  0.15615861  0.22234240    -0.05140
N266        N  0.10523306  0.13537106  0.23449249    -0.60780
N267        N  0.05618705  0.13707539  0.20346289    -0.07050
N268        N  0.06610970  0.10290606  0.20210083    -0.59800
N269        N  0.07545129  0.21590168  0.16563015    -0.04780
N270        N  0.10023731  0.22985292  0.14466935    -0.60870
Mn271      Mn  0.07895349  0.21551403  0.22444729     1.18440
C272        C  0.09203579  0.21764386  0.11146858     0.97430
C273        C  0.09656479  0.10232558  0.22206992     0.98090
N274        N  0.96741696  0.28633891  0.24765475    -0.07070
N275        N  0.96447457  0.32081569  0.23995107    -0.63370
N276        N  0.94827337  0.20677747  0.28699472    -0.05870
N277        N  0.93147759  0.18318352  0.30755823    -0.64050
N278        N  0.97286168  0.22433076  0.30552931    -0.06570
N279        N  0.97323493  0.21279453  0.33942164    -0.63640
N280        N  0.94324785  0.26780683  0.22970323    -0.05470
N281        N  0.92335860  0.28919886  0.20958749    -0.64330
Mn282      Mn  0.01170646  0.25948862  0.27649789     1.10660
C283        C  0.93660092  0.32232504  0.21646628     0.98650
C284        C  0.94700052  0.18735848  0.34010885     0.98730
N285        N  0.97069414  0.13331848  0.20551819    -0.06580
N286        N  0.96116581  0.09895574  0.20366295    -0.61950
N287        N  0.94320753  0.21024534  0.16917986    -0.05900
N288        N  0.91574590  0.22125500  0.14996253    -0.58680
N289        N  0.96641444  0.19294823  0.14870285    -0.07210
N290        N  0.95455345  0.19147141  0.11489268    -0.61520
N291        N  0.94802702  0.15105136  0.22611715    -0.06200
N292        N  0.92354963  0.12941874  0.23940948    -0.58710
Mn293      Mn  0.01158766  0.16396497  0.17487377     1.20190
Mn294      Mn  0.94486593  0.20929449  0.22821187     1.10090
Cl295      Cl  0.01195185  0.21176801  0.22596311    -0.86680
C296        C  0.93190988  0.09707717  0.22562336     0.95660
C297        C  0.92309993  0.20982674  0.11620598     0.95450
N298        N  0.25454163  0.94563412  0.30421545    -0.06830
N299        N  0.24560297  0.94410454  0.33879246    -0.58950
N300        N  0.29703075  0.92336566  0.22603135    -0.06510
N301        N  0.31937457  0.90469095  0.20547402    -0.61080
N302        N  0.31451748  0.94857562  0.24380558    -0.06110
N303        N  0.34918601  0.94755115  0.23546532    -0.58930
N304        N  0.23715123  0.92084340  0.28589121    -0.05790
N305        N  0.21631665  0.90173550  0.30766957    -0.61430
C306        C  0.22238358  0.91609355  0.34073448     0.95350
C307        C  0.35196928  0.91951463  0.21207728     0.95120
N308        N  0.21761192  0.94511166  0.14836625    -0.07020
N309        N  0.21566188  0.93379810  0.11430703    -0.59530
N310        N  0.17832777  0.92090953  0.22534665    -0.05140
N311        N  0.15773913  0.89476486  0.23734845    -0.60780
N312        N  0.15916545  0.94402169  0.20658901    -0.07050
N313        N  0.12512624  0.93339551  0.20503311    -0.59800
N314        N  0.23702381  0.92252751  0.16748070    -0.04780
N315        N  0.24913603  0.89638007  0.14704941    -0.60870
Mn316      Mn  0.23754652  0.92101026  0.22642319     1.18440
C317        C  0.23606657  0.90358840  0.11401648     0.97430
C318        C  0.12471719  0.90284833  0.22490820     0.98090
N319        N  0.31076335  0.03318918  0.24692066    -0.07070
N320        N  0.34513099  0.03794218  0.23916997    -0.63370
N321        N  0.23212427  0.05250171  0.28789255    -0.05870
N322        N  0.20978373  0.06952821  0.30960289    -0.64050
N323        N  0.25085245  0.02860497  0.30585161    -0.06570
N324        N  0.24147001  0.02892414  0.34040815    -0.63640
N325        N  0.29138502  0.05738751  0.23025158    -0.05470
N326        N  0.31186768  0.07915740  0.21119328    -0.64330
Mn327      Mn  0.28403766  0.98893387  0.27618878     1.10660
C328        C  0.34538515  0.06732396  0.21753892     0.98650
C329        C  0.21594059  0.05472036  0.34223256     0.98730
N330        N  0.15668781  0.03064755  0.20700832    -0.06580
N331        N  0.12328155  0.04266016  0.20328100    -0.61950
N332        N  0.23359794  0.05562858  0.16954736    -0.05900
N333        N  0.24449529  0.08278695  0.14970210    -0.58680
N334        N  0.21575180  0.03222124  0.14964005    -0.07210
N335        N  0.21357714  0.04376510  0.11576488    -0.61520
N336        N  0.17518849  0.05305942  0.22735028    -0.06200
N337        N  0.15511241  0.07976747  0.23835164    -0.58710
Mn338      Mn  0.18634344  0.98789785  0.17678951     1.20190
Mn339      Mn  0.23326255  0.05515827  0.22894222     1.10090
Cl340      Cl  0.23526411  0.98816087  0.22671505    -0.86680
C341        C  0.12283810  0.07313527  0.22368966     0.95660
C342        C  0.23225514  0.07514542  0.11630158     0.95450
N343        N  0.21230186  0.13747545  0.04749694    -0.06830
N344        N  0.21132404  0.10340728  0.05807514    -0.58950
N345        N  0.17406563  0.21618528  0.06771505    -0.06510
N346        N  0.15293965  0.23001602  0.09243898    -0.61080
N347        N  0.15533041  0.19652230  0.04478473    -0.06110
N348        N  0.12095288  0.19609921  0.05428777    -0.58930
N349        N  0.23065478  0.15693242  0.07097317    -0.05790
N350        N  0.24297073  0.13667768  0.09712961    -0.61430
C351        C  0.23113604  0.10347453  0.08887984     0.95350
C352        C  0.11999866  0.21766369  0.08383222     0.95120
N353        N  0.25438067  0.29135259  0.04425227    -0.07020
N354        N  0.24939982  0.32641276  0.04550055    -0.59530
N355        N  0.29208006  0.21473027  0.07285178    -0.05140
N356        N  0.31360072  0.19662271  0.09457448    -0.60780
N357        N  0.31091093  0.23130226  0.04785393    -0.07050
N358        N  0.34547979  0.22520230  0.05219768    -0.59800
N359        N  0.23481900  0.27531359  0.06910614    -0.04780
N360        N  0.21637221  0.29932637  0.08794864    -0.60870
Mn361      Mn  0.23273644  0.21578847  0.07118099     1.18440
C362        C  0.22587748  0.33131494  0.07304987     0.97430
C363        C  0.34702640  0.20415361  0.08192603     0.98090
N364        N  0.15560249  0.19396233  0.95821879    -0.07070
N365        N  0.12221202  0.19092338  0.94584290    -0.63370
N366        N  0.23175435  0.15392070  0.93665377    -0.05870
N367        N  0.24331974  0.13380816  0.91000412    -0.64050
N368        N  0.21246859  0.13496290  0.95963942    -0.06570
N369        N  0.20972995  0.10123298  0.94799755    -0.63640
N370        N  0.17525866  0.21290449  0.93546643    -0.05470
N371        N  0.15585111  0.22348320  0.90788245    -0.64330
Mn372      Mn  0.18293343  0.16454598  0.00281176     1.10660
C373        C  0.12284455  0.21007923  0.91458605     0.98650
C374        C  0.22986053  0.10108210  0.91719589     0.98730
N375        N  0.31159464  0.22485779  0.96329329    -0.06580
N376        N  0.34491508  0.21246380  0.96305829    -0.61950
N377        N  0.23565598  0.27109221  0.93717991    -0.05900
N378        N  0.21393583  0.29372869  0.92055630    -0.58680
N379        N  0.25544763  0.28816537  0.96107123    -0.07210
N380        N  0.24779625  0.32267544  0.96105779    -0.61520
N381        N  0.29250884  0.20845442  0.93830189    -0.06200
N382        N  0.31217201  0.18465611  0.92073013    -0.58710
Mn383      Mn  0.28443211  0.25975582  0.00368448     1.20190
Mn384      Mn  0.23399111  0.21222008  0.93605883     1.10090
Cl385      Cl  0.23343436  0.21296521  0.00354465    -0.86680
C386        C  0.34468469  0.18732650  0.93641227     0.95660
C387        C  0.22193091  0.32579510  0.93583111     0.95450
N388        N  0.76890536  0.03388046  0.30002214    -0.06830
N389        N  0.77093288  0.04021367  0.33508026    -0.58950
N390        N  0.73402177  0.05736760  0.22157419    -0.06510
N391        N  0.71405337  0.07963657  0.20281746    -0.61080
N392        N  0.71408386  0.03413945  0.23940835    -0.06110
N393        N  0.67980493  0.04044405  0.23354766    -0.58930
N394        N  0.78846364  0.05727973  0.28208591    -0.05790
N395        N  0.80400241  0.08010479  0.30442705    -0.61430
C396        C  0.79241446  0.06958185  0.33745809     0.95350
C397        C  0.68047502  0.06912752  0.21115274     0.95120
N398        N  0.81222662  0.03050065  0.14539867    -0.07020
N399        N  0.81252490  0.03963790  0.11066280    -0.59530
N400        N  0.85039256  0.05252054  0.22452256    -0.05140
N401        N  0.87130419  0.07759529  0.23780338    -0.60780
N402        N  0.86912384  0.02949769  0.20518265    -0.07050
N403        N  0.90344064  0.03938115  0.20424150    -0.59800
N404        N  0.79398954  0.05412543  0.16436160    -0.04780
N405        N  0.78080822  0.07899481  0.14330075    -0.60870
Mn406      Mn  0.79201764  0.05594201  0.22317579     1.18440
C407        C  0.79213734  0.06979889  0.11000942     0.97430
C408        C  0.90421059  0.06924117  0.22535693     0.98090
N409        N  0.71044642  0.94918511  0.23993970    -0.07070
N410        N  0.67608023  0.94725567  0.23074229    -0.63370
N411        N  0.78728790  0.92491316  0.28374537    -0.05870
N412        N  0.80929046  0.90789950  0.30568029    -0.64050
N413        N  0.76932007  0.94982899  0.30131295    -0.06570
N414        N  0.77882015  0.95015979  0.33576836    -0.63640
N415        N  0.72867676  0.92392252  0.22328305    -0.05470
N416        N  0.70730335  0.90444689  0.20245918    -0.64330
Mn417      Mn  0.73937110  0.99137122  0.27124059     1.10660
C418        C  0.67443166  0.91871734  0.20787080     0.98650
C419        C  0.80363023  0.92375649  0.33798442     0.98730
N420        N  0.86638443  0.94385036  0.20536607    -0.06580
N421        N  0.89993975  0.93215640  0.20318506    -0.61950
N422        N  0.78871711  0.92283548  0.16610929    -0.05900
N423        N  0.77460645  0.89782203  0.14557897    -0.58680
N424        N  0.80851741  0.94510523  0.14684618    -0.07210
N425        N  0.80877902  0.93491659  0.11250760    -0.61520
N426        N  0.84658783  0.92131576  0.22435771    -0.06200
N427        N  0.86617817  0.89435845  0.23574294    -0.58710
Mn428      Mn  0.84020641  0.98721288  0.17459028     1.20190
Mn429      Mn  0.78763814  0.92229792  0.22471950     1.10090
Cl430      Cl  0.78987671  0.98923063  0.22350195    -0.86680
C431        C  0.89934948  0.90147320  0.22285074     0.95660
C432        C  0.78694226  0.90564164  0.11233078     0.95450
N433        N  0.70571621  0.22528258  0.03996897    -0.06830
N434        N  0.67082254  0.21838035  0.04029286    -0.58950
N435        N  0.78222880  0.26627054  0.07008296    -0.06510
N436        N  0.80400601  0.28686702  0.08935475    -0.61080
N437        N  0.76492011  0.28541263  0.04594992    -0.06110
N438        N  0.77443941  0.31958420  0.04855339    -0.58930
N439        N  0.72239142  0.20586646  0.06419301    -0.05790
N440        N  0.69889361  0.18532471  0.08158735    -0.61430
C441        C  0.66655290  0.19350494  0.06656086     0.95350
C442        C  0.79872470  0.32007013  0.07581154     0.95120
N443        N  0.86227757  0.19227627  0.04529721    -0.07020
N444        N  0.89609085  0.19174042  0.05655145    -0.59530
N445        N  0.78465796  0.14922486  0.06288019    -0.05140
N446        N  0.77313299  0.12749443  0.08821493    -0.60780
N447        N  0.80641953  0.13231614  0.04048519    -0.07050
N448        N  0.81066010  0.09855681  0.05121402    -0.59800
N449        N  0.84164399  0.20820242  0.06947433    -0.04780
N450        N  0.86100159  0.21932759  0.09703975    -0.60870
Mn451      Mn  0.78229994  0.20739276  0.06763216     1.18440
C452        C  0.89480085  0.20929212  0.08867293     0.97430
C453        C  0.78912120  0.09602547  0.08082133     0.98090
N454        N  0.76690518  0.28966225  0.96225901    -0.07070
N455        N  0.77360361  0.32452467  0.96323012    -0.63370
N456        N  0.73030176  0.21146182  0.93248921    -0.05870
N457        N  0.71057747  0.18869089  0.91355920    -0.64050
N458        N  0.71068254  0.22754222  0.95719994    -0.06570
N459        N  0.67720179  0.21589605  0.95550147    -0.63640
N460        N  0.78661106  0.27388414  0.93739293    -0.05470
N461        N  0.80725667  0.29775736  0.92097626    -0.64330
Mn462      Mn  0.73598982  0.25813035  0.00132654     1.10660
C463        C  0.79851944  0.32921951  0.93705271     0.98650
C464        C  0.67739587  0.19179350  0.92798592     0.98730
N465        N  0.80978532  0.13657148  0.95412550    -0.06580
N466        N  0.81133280  0.10259755  0.94349309    -0.61950
N467        N  0.84757353  0.21605314  0.93505678    -0.05900
N468        N  0.86787254  0.22759810  0.90835284    -0.58680
N469        N  0.86634969  0.19615063  0.95755358    -0.07210
N470        N  0.89996575  0.19331928  0.94559878    -0.61520
N471        N  0.79169545  0.15584054  0.93061260    -0.06200
N472        N  0.78010534  0.13545410  0.90400034    -0.58710
Mn473      Mn  0.83732895  0.16352660  0.99940285     1.20190
Mn474      Mn  0.78890201  0.21476828  0.93290509     1.10090
Cl475      Cl  0.78658181  0.21089834  0.00033664    -0.86680
C476        C  0.79215981  0.10239707  0.91239183     0.95660
C477        C  0.90048036  0.21370946  0.91510472     0.95450
N478        N  0.05124768  0.74430357  0.69943929    -0.06830
N479        N  0.05187135  0.75248416  0.66464111    -0.58950
N480        N  0.07419227  0.70370427  0.77874134    -0.06510
N481        N  0.09134203  0.68224151  0.80129962    -0.61080
N482        N  0.04826244  0.68624861  0.76205806    -0.06110
N483        N  0.04744462  0.65243728  0.77303361    -0.58930
N484        N  0.07675320  0.76184350  0.71663030    -0.05790
N485        N  0.09522789  0.78224351  0.69379260    -0.61430
C486        C  0.07964193  0.77586753  0.66132242     0.95350
C487        C  0.07452912  0.65027889  0.79733027     0.95120
N488        N  0.05543717  0.78356317  0.85482315    -0.07020
N489        N  0.06634763  0.78550533  0.88891414    -0.59530
N490        N  0.07960588  0.82131190  0.77640493    -0.05140
N491        N  0.10558552  0.84144645  0.76323706    -0.60780
N492        N  0.05717765  0.84086114  0.79566038    -0.07050
N493        N  0.06785197  0.87484026  0.79617887    -0.59800
N494        N  0.07787950  0.76401771  0.83561633    -0.04780
N495        N  0.10371169  0.75165163  0.85613418    -0.60870
Mn496      Mn  0.07819164  0.76249766  0.77642627     1.18440
C497        C  0.09626200  0.76483270  0.88923597     0.97430
C498        C  0.09785154  0.87470990  0.77534529     0.98090
N499        N  0.96322650  0.69025181  0.75846094    -0.07070
N500        N  0.95517421  0.65598214  0.75925207    -0.63370
N501        N  0.94416100  0.76700202  0.71789771    -0.05870
N502        N  0.92366367  0.78500970  0.69525408    -0.64050
N503        N  0.96741110  0.74721463  0.70015619    -0.06570
N504        N  0.96288309  0.75095442  0.66505760    -0.63640
N505        N  0.93902465  0.70860193  0.77643678    -0.05470
N506        N  0.91416952  0.68672714  0.79025007    -0.64330
Mn507      Mn  0.00799809  0.71583803  0.72918792     1.10660
C508        C  0.92459450  0.65368912  0.77878106     0.98650
C509        C  0.93549911  0.77468943  0.66225332     0.98730
N510        N  0.97258721  0.84419007  0.79666978    -0.06580
N511        N  0.96476579  0.87894060  0.79692935    -0.61950
N512        N  0.94571602  0.76810457  0.83581820    -0.05900
N513        N  0.91966990  0.75620958  0.85642643    -0.58680
N514        N  0.96941062  0.78627258  0.85499983    -0.07210
N515        N  0.95896399  0.78789383  0.88931087    -0.61520
N516        N  0.94904351  0.82619537  0.77724486    -0.06200
N517        N  0.92563246  0.84813162  0.76307720    -0.58710
Mn518      Mn  0.01362442  0.81467216  0.82674094     1.20190
Mn519      Mn  0.94365256  0.76767994  0.77708359     1.10090
Cl520      Cl  0.01083193  0.76510602  0.77741509    -0.86680
C521        C  0.93556798  0.88082443  0.77520704     0.95660
C522        C  0.92806686  0.76838139  0.88957407     0.95450
N523        N  0.86543746  0.03305784  0.79185176    -0.06830
N524        N  0.89911100  0.04441876  0.79200632    -0.58950
N525        N  0.78843596  0.05246977  0.83307688    -0.06510
N526        N  0.77640007  0.07902387  0.85305725    -0.61080
N527        N  0.80950422  0.03140552  0.85206364    -0.06110
N528        N  0.81254892  0.04392514  0.88554185    -0.58930
N529        N  0.84492901  0.05499939  0.77312728    -0.05790
N530        N  0.86440085  0.08150688  0.75995971    -0.61430
C531        C  0.89804951  0.07438265  0.77157145     0.95350
C532        C  0.79118551  0.07338382  0.88568911     0.95120
N533        N  0.71039750  0.01683308  0.76082138    -0.07020
N534        N  0.67656097  0.01393541  0.77171524    -0.59530
N535        N  0.78354953  0.04935334  0.71466587    -0.05140
N536        N  0.80207068  0.06913421  0.69143931    -0.60780
N537        N  0.76715875  0.02294798  0.69772893    -0.07050
N538        N  0.77433800  0.02406912  0.66274410    -0.59800
N539        N  0.72655276  0.04328130  0.77810517    -0.04780
N540        N  0.70414222  0.05851147  0.80134033    -0.60870
Mn541      Mn  0.78554510  0.05126076  0.77428703     1.18440
C542        C  0.67311855  0.03984026  0.79729730     0.97430
C543        C  0.79572504  0.05326694  0.65911251     0.98090
N544        N  0.81485571  0.94598980  0.85308313    -0.07070
N545        N  0.81283936  0.93854355  0.88810404    -0.63370
N546        N  0.85537145  0.92533698  0.77418727    -0.05870
N547        N  0.87679701  0.90110183  0.76070010    -0.64050
N548        N  0.87310192  0.94842968  0.79427071    -0.06570
N549        N  0.90750428  0.93902695  0.79589106    -0.63640
N550        N  0.79834131  0.92109564  0.83402342    -0.05470
N551        N  0.78387427  0.89702594  0.85527083    -0.64330
Mn552      Mn  0.84182433  0.98976632  0.82403117     1.10660
C553        C  0.79279209  0.90804974  0.88871620     0.98650
C554        C  0.90914595  0.90955881  0.77408991     0.98730
N555        N  0.77636745  0.94019426  0.69849631    -0.06580
N556        N  0.78299192  0.93819711  0.66357213    -0.61950
N557        N  0.74061629  0.91147645  0.77615222    -0.05900
N558        N  0.72127461  0.88999334  0.79697776    -0.58680
N559        N  0.72004883  0.93332836  0.75785323    -0.07210
N560        N  0.68620820  0.92684345  0.76520831    -0.61520
N561        N  0.79763015  0.91845914  0.71628259    -0.06200
N562        N  0.81959592  0.90163425  0.69395828    -0.58710
Mn563      Mn  0.74218926  0.97852655  0.72763087     1.20190
Mn564      Mn  0.79819363  0.91825432  0.77522596     1.10090
Cl565      Cl  0.79195072  0.98456746  0.77531954    -0.86680
C566        C  0.80980125  0.91389378  0.66110676     0.95660
C567        C  0.68731795  0.89962879  0.78926087     0.95450
N568        N  0.80635510  0.84402955  0.04409409    -0.06830
N569        N  0.80711932  0.87801448  0.05453933    -0.58950
N570        N  0.84600496  0.76723720  0.06552158    -0.06510
N571        N  0.86703861  0.75401073  0.09061782    -0.61080
N572        N  0.86486407  0.78695438  0.04273194    -0.06110
N573        N  0.89913701  0.78800410  0.05252514    -0.58930
N574        N  0.78718556  0.82455591  0.06681885    -0.05790
N575        N  0.77410633  0.84486243  0.09266406    -0.61430
C576        C  0.78637582  0.87802040  0.08461257     0.95350
C577        C  0.90002086  0.76676023  0.08221281     0.95120
N578        N  0.77073686  0.68941907  0.03667888    -0.07020
N579        N  0.78021667  0.65517530  0.03580396    -0.59530
N580        N  0.72678278  0.76585919  0.06467965    -0.05140
N581        N  0.70428272  0.78713939  0.08241930    -0.60780
N582        N  0.70958747  0.74865819  0.03886279    -0.07050
N583        N  0.67534486  0.75806980  0.03837239    -0.59800
N584        N  0.78824771  0.70634757  0.06247907    -0.04780
N585        N  0.80995211  0.68395278  0.07958702    -0.60870
Mn586      Mn  0.78672871  0.76570148  0.06628263     1.18440
C587        C  0.80467600  0.65207172  0.06267944     0.97430
C588        C  0.67208002  0.78152664  0.06613149     0.98090
N589        N  0.86517471  0.78981989  0.95687884    -0.07070
N590        N  0.89959475  0.78977532  0.94742486    -0.63370
N591        N  0.78723180  0.82950124  0.93593117    -0.05870
N592        N  0.77494636  0.85046932  0.91057268    -0.64050
N593        N  0.80730556  0.84768031  0.95877671    -0.06570
N594        N  0.81000050  0.88164726  0.94830446    -0.63640
N595        N  0.84589747  0.77215337  0.93293708    -0.05470
N596        N  0.86649944  0.75895973  0.90750222    -0.64330
Mn597      Mn  0.83710434  0.81820023  0.00069389     1.10660
C598        C  0.89976443  0.76976329  0.91673533     0.98650
C599        C  0.78904850  0.88280739  0.91833940     0.98730
N600        N  0.71047657  0.75219871  0.95563300    -0.06580
N601        N  0.67583078  0.75941753  0.95347065    -0.61950
N602        N  0.78845897  0.71344905  0.92924763    -0.05900
N603        N  0.81123874  0.69303634  0.91108253    -0.58680
N604        N  0.77025216  0.69440096  0.95287343    -0.07210
N605        N  0.77999623  0.66060622  0.95103500    -0.61520
N606        N  0.72853697  0.77131547  0.93194304    -0.06200
N607        N  0.70665998  0.79189270  0.91315015    -0.58710
Mn608      Mn  0.73914153  0.71993526  0.99614470     1.20190
Mn609      Mn  0.78735562  0.77162426  0.93157695     1.10090
Cl610      Cl  0.78779365  0.76897376  0.99887415    -0.86680
C611        C  0.67371615  0.78393511  0.92654080     0.95660
C612        C  0.80514171  0.66001283  0.92472954     0.95450
C613        C  0.93934908  0.54158626  0.81439334    -0.06490
C614        C  0.90159650  0.53399819  0.84388911    -0.00560
C615        C  0.86389021  0.56965931  0.84664504    -0.09140
C616        C  0.87102402  0.61270084  0.82068982    -0.06510
C617        C  0.91195779  0.61856152  0.79308380    -0.00580
C618        C  0.94520895  0.58304068  0.79074139    -0.09050
C619        C  0.96965203  0.58091050  0.75819013     0.61330
H620        H  0.95643299  0.51930789  0.80767018     0.12030
H621        H  0.85285986  0.63510762  0.82381032     0.12040
C622        C  0.84162478  0.57710999  0.88209263     0.61570
F623        F  0.97950851  0.54589218  0.75131817    -0.23600
F624        F  0.00025702  0.60091450  0.76374947    -0.20930
F625        F  0.95188879  0.59298384  0.72776549    -0.20610
F626        F  0.87010750  0.59781854  0.93698279    -0.20660
F627        F  0.82153917  0.54511934  0.88211231    -0.20980
F628        F  0.81466332  0.59832960  0.86611695    -0.23650
C629        C  0.84507279  0.54848624  0.93995270    -0.06490
C630        C  0.88801065  0.55018411  0.91582299    -0.00560
C631        C  0.90249068  0.59367063  0.89160027    -0.09140
C632        C  0.87109060  0.63266927  0.89405145    -0.06510
C633        C  0.82824090  0.62898837  0.91884923    -0.00580
C634        C  0.81530377  0.58662866  0.94010085    -0.09050
C635        C  0.77825547  0.58092381  0.95527954     0.61330
H636        H  0.83397228  0.52379862  0.94922404     0.12030
H637        H  0.87749689  0.65750412  0.88024833     0.12040
C638        C  0.92262266  0.59282687  0.85175411     0.61570
F639        F  0.77207556  0.54485492  0.96148363    -0.23600
F640        F  0.75292646  0.59292122  0.93087698    -0.20930
F641        F  0.77463740  0.59893515  0.98766212    -0.20610
F642        F  0.89260533  0.56665919  0.79953632    -0.20660
F643        F  0.95593001  0.58015585  0.86222096    -0.20980
F644        F  0.93267877  0.62935571  0.85121439    -0.23650
C645        C  0.90441378  0.35886902  0.82697350    -0.06490
C646        C  0.93314940  0.36008195  0.80222579    -0.00560
C647        C  0.94946862  0.39386987  0.79436298    -0.09140
C648        C  0.94033960  0.42311533  0.81632206    -0.06510
C649        C  0.91434237  0.42004755  0.84410638    -0.00580
C650        C  0.89037915  0.39085738  0.84064532    -0.09050
C651        C  0.85260466  0.39776312  0.82744907     0.61330
H652        H  0.88809357  0.33475085  0.82892558     0.12030
H653        H  0.95458107  0.44804522  0.81228031     0.12040
C654        C  0.97658705  0.39976473  0.76404718     0.61570
F655        F  0.84941243  0.38745709  0.79153087    -0.23600
F656        F  0.84456251  0.43380582  0.82884021    -0.20930
F657        F  0.82818681  0.37787983  0.84720549    -0.20610
F658        F  0.96247488  0.38771754  0.73161455    -0.20660
F659        F  0.00807088  0.38184736  0.77174576    -0.20980
F660        F  0.98515624  0.43570697  0.75956219    -0.23650
C661        C  0.80529501  0.39257960  0.91758096    -0.06490
C662        C  0.82029737  0.36209117  0.93322980    -0.00560
C663        C  0.85601228  0.36338411  0.94573989    -0.09140
C664        C  0.87801890  0.39226523  0.93567193    -0.06510
C665        C  0.86464829  0.42094170  0.91540896    -0.00580
C666        C  0.82677765  0.42247669  0.90860514    -0.09050
C667        C  0.80740313  0.45438225  0.89227755     0.61330
H668        H  0.77693447  0.39243944  0.91089339     0.12030
H669        H  0.90545800  0.39296523  0.94477454     0.12040
C670        C  0.86886646  0.33653876  0.97329818     0.61570
F671        F  0.83084065  0.47964777  0.87868089    -0.23600
F672        F  0.78602585  0.47041998  0.91825834    -0.20930
F673        F  0.78533409  0.44305736  0.86436040    -0.20610
F674        F  0.87152871  0.30274470  0.95807774    -0.20660
F675        F  0.84400529  0.33585346  0.00105690    -0.20980
F676        F  0.90195226  0.34588952  0.98766214    -0.23650
C677        C  0.91709347  0.58897635  0.20286406    -0.06490
C678        C  0.93528492  0.61586737  0.18399994    -0.00560
C679        C  0.94292611  0.61137989  0.14675872    -0.09140
C680        C  0.93288851  0.57900462  0.12978576    -0.06510
C681        C  0.91458268  0.55176127  0.14863608    -0.00580
C682        C  0.90612744  0.55700234  0.18601935    -0.09050
C683        C  0.88581350  0.53082415  0.21017655     0.61330
H684        H  0.91098715  0.59322681  0.23126838     0.12030
H685        H  0.93957009  0.57448331  0.10163212     0.12040
C686        C  0.96208312  0.64044906  0.12531746     0.61570
F687        F  0.85406128  0.54644539  0.22142267    -0.23600
F688        F  0.90608973  0.52369012  0.24063851    -0.20930
F689        F  0.87773508  0.49860421  0.19369503    -0.20610
F690        F  0.99477166  0.64829784  0.14129702    -0.20660
F691        F  0.94132231  0.67111061  0.12453829    -0.20980
F692        F  0.96832105  0.63004050  0.08990434    -0.23650
C693        C  0.87117044  0.57334732  0.06467509    -0.06490
C694        C  0.85716792  0.55217868  0.09307008    -0.00560
C695        C  0.82592237  0.56515946  0.11146693    -0.09140
C696        C  0.80957355  0.59726354  0.10006604    -0.06510
C697        C  0.82365933  0.61809730  0.07210765    -0.00580
C698        C  0.85536432  0.60642595  0.05442431    -0.09050
C699        C  0.87298807  0.62968585  0.02581897     0.61330
H700        H  0.89536319  0.56437330  0.05123680     0.12030
H701        H  0.78557486  0.60664032  0.11382436     0.12040
C702        C  0.80835667  0.54752083  0.14375672     0.61570
F703        F  0.90291489  0.61338628  0.01082222    -0.23600
F704        F  0.88362946  0.66191956  0.04115040    -0.20930
F705        F  0.84883619  0.63655841  0.99844644    -0.20610
F706        F  0.80763492  0.57163687  0.17224717    -0.20660
F707        F  0.82604186  0.51734070  0.15490956    -0.20980
F708        F  0.77334988  0.53822168  0.13521378    -0.23650
C709        C  0.88381803  0.39667705  0.16915815    -0.06490
C710        C  0.91099114  0.42240202  0.16171188    -0.00560
C711        C  0.94317250  0.41685639  0.18216234    -0.09140
C712        C  0.95250005  0.38186005  0.19226715    -0.06510
C713        C  0.92612209  0.35549088  0.19685298    -0.00580
C714        C  0.89037917  0.36377756  0.18699325    -0.09050
C715        C  0.85903944  0.33929830  0.19686282     0.61330
H716        H  0.85669964  0.40276725  0.16289360     0.12030
H717        H  0.97906422  0.37729366  0.20339314     0.12040
C718        C  0.96056469  0.44444961  0.20653038     0.61570
F719        F  0.82623524  0.35433400  0.18806583    -0.23600
F720        F  0.85916566  0.33292581  0.23371173    -0.20930
F721        F  0.86170257  0.30702681  0.17865436    -0.20610
F722        F  0.94349748  0.47689268  0.20543580    -0.20660
F723        F  0.99644286  0.44776033  0.19757549    -0.20980
F724        F  0.95858043  0.43314366  0.24220534    -0.23650
C725        C  0.87418250  0.38873420  0.08586340    -0.06490
C726        C  0.85517041  0.41896283  0.09839535    -0.00560
C727        C  0.81818913  0.41445613  0.10789847    -0.09140
C728        C  0.80068826  0.38214835  0.09864244    -0.06510
C729        C  0.81972275  0.35236492  0.08610823    -0.00580
C730        C  0.85760637  0.35466970  0.08246782    -0.09050
C731        C  0.88084292  0.32129586  0.07836181     0.61330
H732        H  0.90272463  0.39133499  0.08144620     0.12030
H733        H  0.77199164  0.37923810  0.10277905     0.12040
C734        C  0.79749624  0.44219666  0.12977823     0.61570
F735        F  0.91653237  0.33007361  0.07223837    -0.23600
F736        F  0.86943410  0.29971069  0.05026101    -0.20930
F737        F  0.87897812  0.30150829  0.10982812    -0.20610
F738        F  0.79468432  0.47357882  0.11074478    -0.20660
F739        F  0.81474527  0.44907476  0.16208683    -0.20980
F740        F  0.76298199  0.43068804  0.13793723    -0.23650
C741        C  0.90603906  0.49366163  0.03067595    -0.06490
C742        C  0.87224065  0.48387962  0.04510934    -0.00560
C743        C  0.84457673  0.47566853  0.01988348    -0.09140
C744        C  0.85353091  0.47144286  0.98293492    -0.06510
C745        C  0.88694241  0.48192259  0.96837944    -0.00580
C746        C  0.91395774  0.49309843  0.99320270    -0.09050
C747        C  0.95166870  0.50326219  0.98085434     0.61330
H748        H  0.92646521  0.50277311  0.04939343     0.12030
H749        H  0.83272592  0.46354685  0.96454665     0.12040
C750        C  0.80508229  0.47670766  0.02971249     0.61570
F751        F  0.97496954  0.50740613  0.00972796    -0.23600
F752        F  0.95109500  0.53525138  0.96206586    -0.20930
F753        F  0.96543768  0.47672313  0.95889925    -0.20610
F754        F  0.79837991  0.50588707  0.05182261    -0.20660
F755        F  0.79503308  0.44523657  0.04626745    -0.20980
F756        F  0.78355978  0.48054148  0.99948128    -0.23650
C757        C  0.11355368  0.55814320  0.18018480    -0.06490
C758        C  0.09969580  0.55671371  0.14483800    -0.00560
C759        C  0.08467291  0.58849943  0.12995638    -0.09140
C760        C  0.08150105  0.61915539  0.15213200    -0.06510
C761        C  0.09233015  0.61902244  0.18842505    -0.00580
C762        C  0.10909389  0.58830391  0.20271630    -0.09050
C763        C  0.12143989  0.58722639  0.24176732     0.61330
H764        H  0.12664227  0.53453197  0.19076996     0.12030
H765        H  0.06940515  0.64326556  0.14122598     0.12040
C766        C  0.07153904  0.59222512  0.09139065     0.61570
F767        F  0.13828448  0.55519590  0.25004399    -0.23600
F768        F  0.09214369  0.59089714  0.26454372    -0.20930
F769        F  0.14541402  0.61500358  0.24811406    -0.20610
F770        F  0.07429088  0.56111141  0.07152414    -0.20660
F771        F  0.09133784  0.61870252  0.07414266    -0.20980
F772        F  0.03584452  0.60216668  0.09173162    -0.23650
C773        C  0.20482459  0.59880735  0.11257126    -0.06490
C774        C  0.20574840  0.61382526  0.07790490    -0.00560
C775        C  0.18608969  0.59640058  0.05034782    -0.09140
C776        C  0.16004866  0.57060641  0.05959175    -0.06510
C777        C  0.16000947  0.55400955  0.09336078    -0.00580
C778        C  0.18547948  0.56669950  0.11951453    -0.09050
C779        C  0.19647374  0.54630285  0.15302049     0.61330
H780        H  0.22194239  0.61021722  0.13335839     0.12030
H781        H  0.14098729  0.56156976  0.03949216     0.12040
C782        C  0.19399971  0.60300216  0.01118656     0.61570
F783        F  0.23284506  0.53896356  0.15103398    -0.23600
F784        F  0.17866412  0.51408373  0.15652963    -0.20930
F785        F  0.19037220  0.56705210  0.18345413    -0.20610
F786        F  0.22949481  0.59479339  0.00384896    -0.20660
F787        F  0.18735049  0.63850803  0.00321293    -0.20980
F788        F  0.17320448  0.58105219  0.98971742    -0.23650
C789        C  0.08846954  0.42643172  0.18012184    -0.06490
C790        C  0.09276646  0.42327770  0.14233350    -0.00560
C791        C  0.08715764  0.38882277  0.12630655    -0.09140
C792        C  0.08154886  0.35894021  0.14910327    -0.06510
C793        C  0.07860270  0.36233127  0.18684627    -0.00580
C794        C  0.08120395  0.39685324  0.20264366    -0.09050
C795        C  0.07873072  0.40233805  0.24331272     0.61330
H796        H  0.09309580  0.45229924  0.19235359     0.12030
H797        H  0.07844877  0.33252175  0.13706018     0.12040
C798        C  0.08525703  0.38139223  0.08594538     0.61570
F799        F  0.08661087  0.43736294  0.25327004    -0.23600
F800        F  0.10286887  0.38006413  0.26061634    -0.20930
F801        F  0.04426555  0.39463412  0.25507645    -0.20610
F802        F  0.11283586  0.35854309  0.07613639    -0.20660
F803        F  0.08741291  0.41185453  0.06498049    -0.20980
F804        F  0.05285124  0.36474367  0.07819901    -0.23650
C805        C  0.19228656  0.37210595  0.11547512    -0.06490
C806        C  0.20752247  0.36606894  0.08132388    -0.00560
C807        C  0.20401006  0.39362778  0.05552155    -0.09140
C808        C  0.17579310  0.41812791  0.05968482    -0.06510
C809        C  0.16074370  0.42588325  0.09383762    -0.00580
C810        C  0.17415328  0.40460043  0.12331522    -0.09050
C811        C  0.17568499  0.41614730  0.16260432     0.61330
H812        H  0.19827942  0.35349467  0.13714338     0.12030
H813        H  0.16700862  0.43140713  0.03571134     0.12040
C814        C  0.23321455  0.40183090  0.02816273     0.61570
F815        F  0.21129575  0.41761894  0.17324422    -0.23600
F816        F  0.15825391  0.39112869  0.18398954    -0.20930
F817        F  0.16132592  0.44956267  0.16870936    -0.20610
F818        F  0.23139106  0.37884307  0.99939456    -0.20660
F819        F  0.26661469  0.39910532  0.04427274    -0.20980
F820        F  0.23017197  0.43630424  0.01509908    -0.23650
C821        C  0.02602163  0.46516929  0.11331663    -0.06490
C822        C  0.04513303  0.48880136  0.13628556    -0.00560
C823        C  0.02361753  0.50938062  0.16061872    -0.09140
C824        C  0.98593121  0.51067227  0.15566773    -0.06510
C825        C  0.96682201  0.48590148  0.13383341    -0.00580
C826        C  0.98817065  0.46212992  0.11224521    -0.09050
C827        C  0.97289719  0.43258912  0.08810895     0.61330
H828        H  0.04131308  0.44783055  0.09590863     0.12030
H829        H  0.97121107  0.52767310  0.17394107     0.12040
C830        C  0.03633571  0.52356956  0.19678186     0.61570
F831        F  0.99729789  0.42164976  0.06201171    -0.23600
F832        F  0.94311666  0.44402149  0.06988331    -0.20930
F833        F  0.96422902  0.40295271  0.10872337    -0.20610
F834        F  0.03743747  0.56057870  0.19589560    -0.20660
F835        F  0.06899504  0.50945049  0.20636307    -0.20980
F836        F  0.01253836  0.51370700  0.22390995    -0.23650
C837        C  0.11884006  0.56351043  0.82684594    -0.06490
C838        C  0.09903813  0.55394882  0.85795573    -0.00560
C839        C  0.07283754  0.57862932  0.87117169    -0.09140
C840        C  0.06578668  0.61008302  0.85089385    -0.06510
C841        C  0.08378343  0.61753466  0.81820202    -0.00580
C842        C  0.11083590  0.59401159  0.80608403    -0.09050
C843        C  0.13051511  0.60076971  0.77071489     0.61330
H844        H  0.13968484  0.54570434  0.81768540     0.12030
H845        H  0.04561060  0.62878287  0.86045155     0.12040
C846        C  0.05173418  0.57356567  0.90607212     0.61570
F847        F  0.15529165  0.57414761  0.76310634    -0.23600
F848        F  0.14859007  0.63325110  0.77243552    -0.20930
F849        F  0.10602618  0.60176160  0.74264065    -0.20610
F850        F  0.05855035  0.60195892  0.92922276    -0.20660
F851        F  0.05988316  0.54195577  0.92371179    -0.20980
F852        F  0.01547330  0.57353807  0.89874911    -0.23650
C853        C  0.21167787  0.59730729  0.89431400    -0.06490
C854        C  0.19591557  0.62332877  0.91634556    -0.00560
C855        C  0.15963964  0.61864621  0.92754335    -0.09140
C856        C  0.14387674  0.58450034  0.92312886    -0.06510
C857        C  0.16076596  0.55709053  0.90359665    -0.00580
C858        C  0.19331039  0.56560613  0.88509031    -0.09050
C859        C  0.20923531  0.54406532  0.85433994     0.61330
H860        H  0.23809386  0.60248749  0.88291380     0.12030
H861        H  0.11839770  0.57886093  0.93584396     0.12040
C862        C  0.13625457  0.64775291  0.94427608     0.61570
F863        F  0.24379292  0.53383406  0.86315093    -0.23600
F864        F  0.21089877  0.56549136  0.82383031    -0.20930
F865        F  0.18919526  0.51408720  0.84580830    -0.20610
F866        F  0.10930241  0.65628614  0.92014629    -0.20660
F867        F  0.15474761  0.67890728  0.95243592    -0.20980
F868        F  0.12049961  0.63523543  0.97581752    -0.23650
C869        C  0.11484697  0.38693813  0.86367722    -0.06490
C870        C  0.11394261  0.42141828  0.84811854    -0.00560
C871        C  0.10789493  0.42243288  0.80975569    -0.09140
C872        C  0.09595942  0.39115437  0.79162158    -0.06510
C873        C  0.09882437  0.35728654  0.80744988    -0.00580
C874        C  0.11338742  0.35538370  0.84266106    -0.09050
C875        C  0.12956837  0.32114781  0.85734286     0.61330
H876        H  0.11662269  0.38398861  0.89236307     0.12030
H877        H  0.08802586  0.39276744  0.76345615     0.12040
C878        C  0.11748059  0.45321786  0.78500154     0.61570
F879        F  0.14760226  0.32725746  0.88902993    -0.23600
F880        F  0.15459682  0.30784957  0.83298931    -0.20930
F881        F  0.10307529  0.29596868  0.86399702    -0.20610
F882        F  0.14300018  0.44167586  0.76036089    -0.20660
F883        F  0.13189981  0.48219967  0.80301055    -0.20980
F884        F  0.08733786  0.46331369  0.76581032    -0.23650
C885        C  0.15694443  0.40452931  0.94032025    -0.06490
C886        C  0.16907354  0.42534979  0.91085998    -0.00560
C887        C  0.20005933  0.41393516  0.89147595    -0.09140
C888        C  0.21675138  0.38156727  0.90109795    -0.06510
C889        C  0.20293989  0.35968056  0.92837471    -0.00580
C890        C  0.17206991  0.37063561  0.94802209    -0.09050
C891        C  0.15355197  0.34542009  0.97468085     0.61330
H892        H  0.13322092  0.41333525  0.95477463     0.12030
H893        H  0.24070080  0.37270592  0.88701871     0.12040
C894        C  0.21674596  0.43649833  0.86193003     0.61570
F895        F  0.12364993  0.36113633  0.99032710    -0.23600
F896        F  0.17672021  0.33561552  0.00195383    -0.20930
F897        F  0.14238428  0.31459048  0.95703399    -0.20610
F898        F  0.22858728  0.46818900  0.87696683    -0.20660
F899        F  0.19191627  0.44327106  0.83515630    -0.20980
F900        F  0.24605488  0.41995655  0.84598897    -0.23650
C901        C  0.17829745  0.49712540  0.02039707    -0.06490
C902        C  0.14418036  0.49215329  0.03676434    -0.00560
C903        C  0.11413144  0.48904603  0.01264796    -0.09140
C904        C  0.11961510  0.48789575  0.97495586    -0.06510
C905        C  0.15337562  0.49150856  0.95873879    -0.00580
C906        C  0.18350460  0.49655300  0.98198373    -0.09050
C907        C  0.22111243  0.50007542  0.96672268     0.61330
H908        H  0.20113221  0.50036709  0.03820624     0.12030
H909        H  0.09645522  0.48473845  0.95739409     0.12040
C910        C  0.07501209  0.48848000  0.02356746     0.61570
F911        F  0.24638351  0.50571886  0.99358405    -0.23600
F912        F  0.22304029  0.52871623  0.94335916    -0.20930
F913        F  0.23002094  0.46901709  0.94842782    -0.20610
F914        F  0.05711464  0.51600141  0.00617423    -0.20660
F915        F  0.07026439  0.49326489  0.05968087    -0.20980
F916        F  0.05955206  0.45612441  0.01354777    -0.23650
C917        C  0.03848203  0.44951020  0.88092070    -0.06490
C918        C  0.05566755  0.47858098  0.86314985    -0.00560
C919        C  0.03254017  0.50411729  0.84827634    -0.09140
C920        C  0.99733674  0.50590128  0.86108458    -0.06510
C921        C  0.97769748  0.47588027  0.87207913    -0.00580
C922        C  0.00005348  0.44602751  0.88329664    -0.09050
C923        C  0.98601342  0.41175423  0.90065418     0.61330
H924        H  0.05536352  0.42931994  0.89303323     0.12030
H925        H  0.98454127  0.53042266  0.85775307     0.12040
C926        C  0.03791525  0.51964771  0.81103419     0.61570
F927        F  0.01191392  0.39552234  0.92185814    -0.23600
F928        F  0.97597820  0.38735725  0.87442001    -0.20930
F929        F  0.95762577  0.41883424  0.92310368    -0.20610
F930        F  0.07260045  0.51772742  0.79919276    -0.20660
F931        F  0.02717475  0.55502642  0.81046468    -0.20980
F932        F  0.01726707  0.50010179  0.78698051    -0.23650
C933        C  0.58495575  0.85239043  0.82966517    -0.06490
C934        C  0.56256801  0.89562014  0.84024655    -0.00560
C935        C  0.58740819  0.93860637  0.83382881    -0.09140
C936        C  0.63494268  0.93723709  0.82305311    -0.06510
C937        C  0.65741802  0.89481390  0.81357894    -0.00580
C938        C  0.63307316  0.85234466  0.81804172    -0.09050
C939        C  0.65130863  0.81803892  0.80819601     0.61330
H940        H  0.57067690  0.82719988  0.83296902     0.12030
H941        H  0.64823472  0.96181382  0.81509434     0.12040
C942        C  0.56996607  0.96685964  0.81113140     0.61570
F943        F  0.62834994  0.78926592  0.81366460    -0.23600
F944        F  0.68150863  0.81377525  0.82939752    -0.20930
F945        F  0.66142347  0.81906992  0.77222765    -0.20610
F946        F  0.56331317  0.99661709  0.83167896    -0.20660
F947        F  0.53922478  0.95305899  0.79567636    -0.20980
F948        F  0.59203738  0.97730377  0.78282910    -0.23650
C949        C  0.64341604  0.83772926  0.90150604    -0.06490
C950        C  0.64036371  0.80319321  0.91617299    -0.00560
C951        C  0.60604625  0.78737078  0.91865038    -0.09140
C952        C  0.57580698  0.80905960  0.91314975    -0.06510
C953        C  0.57777792  0.84539763  0.90275165    -0.00580
C954        C  0.61305223  0.85845566  0.89163012    -0.09050
C955        C  0.61964807  0.89276879  0.86615618     0.61330
H956        H  0.67026630  0.84758559  0.89610314     0.12030
H957        H  0.55004691  0.79659083  0.91432350     0.12040
C958        C  0.60125020  0.74712446  0.92393087     0.61570
F959        F  0.65525305  0.90220512  0.87607296    -0.23600
F960        F  0.60401629  0.91748320  0.89039895    -0.20930
F961        F  0.60334274  0.89635053  0.80204067    -0.20610
F962        F  0.60720787  0.73822722  0.95969266    -0.20660
F963        F  0.62511304  0.72863342  0.90205156    -0.20980
F964        F  0.56700428  0.73580139  0.91462655    -0.23650
C965        C  0.43709856  0.88797468  0.82520370    -0.06490
C966        C  0.44098858  0.90356748  0.85955472    -0.00560
C967        C  0.41461527  0.92765514  0.87255983    -0.09140
C968        C  0.38470585  0.93472306  0.85053905    -0.06510
C969        C  0.38071980  0.91854695  0.81644807    -0.00580
C970        C  0.40671212  0.89415450  0.80383587    -0.09050
C971        C  0.40168466  0.87419977  0.76839292     0.61330
H972        H  0.45854900  0.87128145  0.81500292     0.12030
H973        H  0.36406912  0.95273282  0.86026045     0.12040
C974        C  0.41724693  0.94752574  0.90831197     0.61570
F975        F  0.42975670  0.85090102  0.76139303    -0.23600
F976        F  0.39961379  0.89843664  0.74019395    -0.20930
F977        F  0.37022311  0.85428908  0.76983642    -0.20610
F978        F  0.42161468  0.98360320  0.90164031    -0.20660
F979        F  0.44577426  0.93692335  0.92926207    -0.20980
F980        F  0.38601558  0.94234415  0.92801801    -0.23650
C981        C  0.41917486  0.85172612  0.92951050    -0.06490
C982        C  0.44461117  0.83890035  0.90475679    -0.00560
C983        C  0.43868905  0.80564686  0.88664072    -0.09140
C984        C  0.40729547  0.78616942  0.89484985    -0.06510
C985        C  0.38172703  0.79963620  0.91896268    -0.00580
C986        C  0.38707101  0.83317161  0.93601509    -0.09050
C987        C  0.35866881  0.84933278  0.96055503     0.61330
H988        H  0.42448251  0.87667011  0.94345890     0.12030
H989        H  0.40188085  0.76072753  0.88162417     0.12040
C990        C  0.46334859  0.79130728  0.85701394     0.61570
F991        F  0.36999548  0.88131480  0.97601345    -0.23600
F992        F  0.35055544  0.82557200  0.98804288    -0.20930
F993        F  0.32794466  0.85614394  0.94077590    -0.20610
F994        F  0.49917388  0.79669562  0.86493770    -0.20660
F995        F  0.45568815  0.80823497  0.82486250    -0.20980
F996        F  0.45832809  0.75476270  0.85196646    -0.23650
C997        C  0.58317451  0.88507915  0.17466293    -0.06490
C998        C  0.58119429  0.90160179  0.14041155    -0.00560
C999        C  0.61181221  0.92088201  0.12747929    -0.09140
C1000       C  0.64256485  0.92335874  0.14952147    -0.06510
C1001       C  0.64293643  0.90993841  0.18486625    -0.00580
C1002       C  0.61324291  0.88975156  0.19752665    -0.09050
C1003       C  0.61309511  0.87429004  0.23539836     0.61330
H1004       H  0.56011871  0.86984651  0.18406377     0.12030
H1005       H  0.66579630  0.93829194  0.13992006     0.12040
C1006       C  0.61319412  0.94143537  0.09217188     0.61570
F1007       F  0.58195614  0.85504922  0.24251957    -0.23600
F1008       F  0.61563738  0.90185402  0.26040691    -0.20930
F1009       F  0.64206508  0.85152679  0.23950991    -0.20610
F1010       F  0.58002666  0.94444322  0.07607349    -0.20660
F1011       F  0.63670472  0.92443037  0.06895252    -0.20980
F1012       F  0.62585420  0.97592992  0.09805528    -0.23650
C1013       C  0.58875268  0.82558081  0.10746241    -0.06490
C1014       C  0.57831818  0.84998459  0.08021949    -0.00560
C1015       C  0.59930189  0.85069613  0.04765591    -0.09140
C1016       C  0.62839130  0.82665761  0.04386270    -0.06510
C1017       C  0.63954902  0.80416241  0.07200604    -0.00580
C1018       C  0.61952944  0.80367728  0.10446890    -0.09050
C1019       C  0.63039675  0.77958133  0.13556638     0.61330
H1020       H  0.57274909  0.82428324  0.13188363     0.12030
H1021       H  0.64381529  0.82664078  0.01890685     0.12040
C1022       C  0.59399540  0.87610569  0.01615454     0.61570
F1023       F  0.60652450  0.78171125  0.16427023    -0.23600
F1024       F  0.66400636  0.78963927  0.14794382    -0.20930
F1025       F  0.63151310  0.74426702  0.12394333    -0.20610
F1026       F  0.62633618  0.89230563  0.00715770    -0.20660
F1027       F  0.56988741  0.90291359  0.02351575    -0.20980
F1028       F  0.58244306  0.85683501  0.98644462    -0.23650
C1029       C  0.39154478  0.93310936  0.15998266    -0.06490
C1030       C  0.38462845  0.91152630  0.19009328    -0.00560
C1031       C  0.40861217  0.88326245  0.19823743    -0.09140
C1032       C  0.43928267  0.87795595  0.17603699    -0.06510
C1033       C  0.44705878  0.90058525  0.14652602    -0.00580
C1034       C  0.42261070  0.92879048  0.13860097    -0.09050
C1035       C  0.42903176  0.95707802  0.11011202     0.61330
H1036       H  0.37301217  0.95467110  0.15384786     0.12030
H1037       H  0.45783767  0.85642487  0.18192641     0.12040
C1038       C  0.40180274  0.85927919  0.23057883     0.61570
F1039       F  0.42616251  0.98991728  0.12645351    -0.23600
F1040       F  0.40354560  0.95424309  0.08313798    -0.20930
F1041       F  0.46262702  0.95602920  0.09491370    -0.20610
F1042       F  0.36910144  0.84193623  0.22663053    -0.20660
F1043       F  0.40105975  0.87987946  0.26174465    -0.20980
F1044       F  0.42824773  0.83352371  0.23434598    -0.23650
C1045       C  0.41447240  0.86101926  0.08193781    -0.06490
C1046       C  0.44769129  0.84457310  0.08885226    -0.00560
C1047       C  0.44820646  0.80621763  0.09067237    -0.09140
C1048       C  0.41685786  0.78662873  0.08156118    -0.06510
C1049       C  0.38367220  0.80349589  0.07626580    -0.00580
C1050       C  0.38213468  0.84149437  0.07850023    -0.09050
C1051       C  0.34664134  0.86164372  0.07885848     0.61330
H1052       H  0.41353398  0.88967990  0.08075502     0.12030
H1053       H  0.41774295  0.75751318  0.08123946     0.12040
C1054       C  0.47935734  0.78408166  0.10476906     0.61570
F1055       F  0.35156160  0.89850256  0.07874637    -0.23600
F1056       F  0.32784921  0.85293140  0.10996755    -0.20930
F1057       F  0.32624671  0.85274325  0.04897979    -0.20610
F1058       F  0.46748429  0.76351877  0.13359800    -0.20660
F1059       F  0.50782426  0.80449180  0.11692206    -0.20980
F1060       F  0.49137694  0.76116613  0.07792182    -0.23650
C1061       C  0.51305637  0.82551406  0.01758329    -0.06490
C1062       C  0.50751995  0.85921892  0.03351965    -0.00560
C1063       C  0.49884708  0.88834663  0.01039611    -0.09140
C1064       C  0.50116334  0.88388513  0.97289069    -0.06510
C1065       C  0.50818678  0.85084816  0.95639228    -0.00580
C1066       C  0.50973502  0.82012647  0.97970063    -0.09050
C1067       C  0.50441951  0.78155353  0.96812210     0.61330
H1068       H  0.51822593  0.80284164  0.03496623     0.12030
H1069       H  0.49569240  0.90642971  0.95567762     0.12040
C1070       C  0.48634492  0.92413369  0.02477842     0.61570
F1071       F  0.47715087  0.76632881  0.98860353    -0.23600
F1072       F  0.53559805  0.76258372  0.97434235    -0.20930
F1073       F  0.49462033  0.77821242  0.93247956    -0.20610
F1074       F  0.51055800  0.93754997  0.04964436    -0.20660
F1075       F  0.45316645  0.91906146  0.04027451    -0.20980
F1076       F  0.48221285  0.94961905  0.99799529    -0.23650
C1077       C  0.60070418  0.05782011  0.86948081    -0.06490
C1078       C  0.57381284  0.07418055  0.84839972    -0.00560
C1079       C  0.58029547  0.07766569  0.81034098    -0.09140
C1080       C  0.61135012  0.06269117  0.79495546    -0.06510
C1081       C  0.63882653  0.04874096  0.81612670    -0.00580
C1082       C  0.63371011  0.04620397  0.85411798    -0.09050
C1083       C  0.66312575  0.03167977  0.87825538     0.61330
H1084       H  0.59631133  0.05584577  0.89837044     0.12030
H1085       H  0.61581250  0.06518014  0.76603807     0.12040
C1086       C  0.55889676  0.10111965  0.78503861     0.61570
F1087       F  0.65192344  0.02882782  0.91387233    -0.23600
F1088       F  0.69257133  0.05440895  0.87713841    -0.20930
F1089       F  0.67337875  0.99797531  0.86656511    -0.20610
F1090       F  0.53320009  0.12049435  0.80271468    -0.20660
F1091       F  0.54283427  0.08019892  0.75870442    -0.20980
F1092       F  0.58170257  0.12554587  0.76837601    -0.23650
C1093       C  0.61618256  0.17015196  0.94127068    -0.06490
C1094       C  0.64531142  0.17042627  0.91714244    -0.00560
C1095       C  0.64002520  0.15578503  0.88195990    -0.09140
C1096       C  0.60582284  0.14132638  0.87352723    -0.06510
C1097       C  0.57738214  0.14060449  0.89902380    -0.00580
C1098       C  0.58169175  0.16553404  0.92736273    -0.09050
C1099       C  0.56198962  0.20087140  0.92472819     0.61330
H1100       H  0.61879542  0.18379499  0.96688990     0.12030
H1101       H  0.60084185  0.13338877  0.84617450     0.12040
C1102       C  0.66934615  0.15582242  0.85330434     0.61570
F1103       F  0.58549837  0.22838422  0.91540555    -0.23600
F1104       F  0.54749023  0.20924386  0.95790730    -0.20930
F1105       F  0.53604251  0.19981247  0.89807531    -0.20610
F1106       F  0.69836230  0.13608414  0.86529514    -0.20660
F1107       F  0.68007731  0.19070451  0.84611284    -0.20980
F1108       F  0.65781537  0.14060710  0.82113535    -0.23650
C1109       C  0.40142848  0.10726186  0.79499189    -0.06490
C1110       C  0.37711359  0.08067107  0.80578475    -0.00560
C1111       C  0.38452411  0.05967897  0.83623287    -0.09140
C1112       C  0.41903367  0.06125581  0.85069286    -0.06510
C1113       C  0.44270404  0.08980361  0.84327447    -0.00580
C1114       C  0.43309198  0.11400445  0.81485820    -0.09050
C1115       C  0.45565853  0.14555491  0.80221708     0.61330
H1116       H  0.39520991  0.12342986  0.77147104     0.12030
H1117       H  0.42776903  0.03861463  0.86595210     0.12040
C1118       C  0.35561901  0.03669869  0.85392685     0.61570
F1119       F  0.43407094  0.17549927  0.79862650    -0.23600
F1120       F  0.47036574  0.13751878  0.76878024    -0.20930
F1121       F  0.48292206  0.15437674  0.82573515    -0.20610
F1122       F  0.34468968  0.00965985  0.83080482    -0.20660
F1123       F  0.32641080  0.05797871  0.86247814    -0.20980
F1124       F  0.36741774  0.02150157  0.88575776    -0.23650
C1125       C  0.43285955  0.16686462  0.89093720    -0.06490
C1126       C  0.44221190  0.13405821  0.90685954    -0.00560
C1127       C  0.41669555  0.11514819  0.92784166    -0.09140
C1128       C  0.38366784  0.13245573  0.93583632    -0.06510
C1129       C  0.37666152  0.16765269  0.92353743    -0.00580
C1130       C  0.40069976  0.18429840  0.89926657    -0.09050
C1131       C  0.39250445  0.22063093  0.88264309     0.61330
H1132       H  0.45213779  0.18016622  0.87372653     0.12030
H1133       H  0.36422411  0.11958412  0.95344361     0.12040
C1134       C  0.42608383  0.07882716  0.94471738     0.61570
F1135       F  0.41887582  0.23141601  0.85845994    -0.23600
F1136       F  0.39006243  0.24637007  0.90952721    -0.20930
F1137       F  0.36024552  0.21880019  0.86420338    -0.20610
F1138       F  0.45436884  0.08271637  0.96800949    -0.20660
F1139       F  0.43782464  0.05423950  0.92041846    -0.20980
F1140       F  0.39700958  0.06358378  0.96219981    -0.23650
C1141       C  0.51910762  0.01616959  0.89091308    -0.06490
C1142       C  0.50437838  0.03248436  0.86013689    -0.00560
C1143       C  0.48867556  0.00935678  0.83358852    -0.09140
C1144       C  0.48683502  0.97175487  0.84036728    -0.06510
C1145       C  0.50545443  0.95516505  0.86919775    -0.00580
C1146       C  0.52218581  0.97864647  0.89501419    -0.09050
C1147       C  0.54493655  0.96762749  0.92715872     0.61330
H1148       H  0.53058560  0.03337924  0.91163351     0.12030
H1149       H  0.47417855  0.95477212  0.82026186     0.12040
C1150       C  0.47660803  0.02160303  0.79643488     0.61570
F1151       F  0.53038417  0.98192417  0.95840702    -0.23600
F1152       F  0.57921904  0.98155528  0.92285511    -0.20930
F1153       F  0.54802466  0.93134364  0.93180792    -0.20610
F1154       F  0.48317285  0.05750206  0.79039447    -0.20660
F1155       F  0.44030275  0.01477358  0.79224128    -0.20980
F1156       F  0.49498206  0.00264558  0.77013064    -0.23650
C1157       C  0.60964008  0.09394774  0.21684965    -0.06490
C1158       C  0.64932057  0.08034486  0.19130489    -0.00560
C1159       C  0.64516679  0.06642756  0.14389455    -0.09140
C1160       C  0.60090119  0.06299488  0.12276151    -0.06510
C1161       C  0.56046471  0.07685912  0.14862544    -0.00580
C1162       C  0.56483347  0.09115708  0.19665581    -0.09050
C1163       C  0.53477623  0.10512761  0.21907011     0.61330
H1164       H  0.61230843  0.10109342  0.24508491     0.12030
H1165       H  0.59880525  0.05353022  0.09539574     0.12040
C1166       C  0.67766323  0.05451439  0.12336217     0.61570
F1167       F  0.52447179  0.07936213  0.24390446    -0.23600
F1168       F  0.50664129  0.11424230  0.19739207    -0.20930
F1169       F  0.54590637  0.13553490  0.23745604    -0.20610
F1170       F  0.69281421  0.02523929  0.14034248    -0.20660
F1171       F  0.70238210  0.08226067  0.12208360    -0.20980
F1172       F  0.66840319  0.04503322  0.08843857    -0.23650
C1173       C  0.56626405  0.16734595  0.07620876    -0.06490
C1174       C  0.56799105  0.13620255  0.09799255    -0.00560
C1175       C  0.60255003  0.13034243  0.11564282    -0.09140
C1176       C  0.63334127  0.14508264  0.09860200    -0.06510
C1177       C  0.63155137  0.17529583  0.07626831    -0.00580
C1178       C  0.59684138  0.18827883  0.06703524    -0.09050
C1179       C  0.59134804  0.22464594  0.04927194     0.61330
H1180       H  0.54021780  0.17653124  0.06764463     0.12030
H1181       H  0.65961229  0.13598114  0.10693867     0.12040
C1182       C  0.60843895  0.11686994  0.15679488     0.61570
F1183       F  0.55532526  0.23353482  0.04691057    -0.23600
F1184       F  0.60519395  0.22466357  0.01466423    -0.20930
F1185       F  0.60824452  0.25100944  0.06951281    -0.20610
F1186       F  0.60208599  0.05504622  0.17763014    -0.20660
F1187       F  0.58602987  0.14361897  0.17184895    -0.20980
F1188       F  0.64043815  0.13565134  0.16577337    -0.23650
C1189       C  0.37077363  0.05820216  0.15791101    -0.06490
C1190       C  0.37416316  0.07440929  0.19162881    -0.00560
C1191       C  0.40333219  0.09727190  0.19861424    -0.09140
C1192       C  0.43003197  0.10064233  0.17186695    -0.06510
C1193       C  0.43072612  0.07869596  0.14072902    -0.00580
C1194       C  0.39829850  0.05980502  0.13207818    -0.09050
C1195       C  0.38821566  0.04475305  0.09569413     0.61330
H1196       H  0.34624504  0.04343818  0.15200418     0.12030
H1197       H  0.45125795  0.11973807  0.17577475     0.12040
C1198       C  0.40645598  0.11702058  0.23431088     0.61570
F1199       F  0.36970702  0.01264286  0.09930347    -0.23600
F1200       F  0.41779405  0.03891229  0.07409471    -0.20930
F1201       F  0.36466060  0.06841168  0.07998205    -0.20610
F1202       F  0.40731623  0.09242670  0.26230608    -0.20660
F1203       F  0.37715356  0.13930017  0.23888791    -0.20980
F1204       F  0.43740289  0.13772688  0.23600728    -0.23650
C1205       C  0.43485304  0.16213495  0.11325845    -0.06490
C1206       C  0.43840445  0.13441162  0.08740177    -0.00560
C1207       C  0.41114885  0.13041677  0.06126558    -0.09140
C1208       C  0.38161215  0.15331846  0.06153121    -0.06510
C1209       C  0.37767575  0.18001499  0.08741648    -0.00580
C1210       C  0.40422732  0.18456525  0.11422627    -0.09050
C1211       C  0.39967360  0.21246477  0.14362982     0.61330
H1212       H  0.45591279  0.16558826  0.13311445     0.12030
H1213       H  0.36162164  0.15102247  0.04026213     0.12040
C1214       C  0.41438720  0.10724525  0.02875308     0.61570
F1215       F  0.42798721  0.21210494  0.16784950    -0.23600
F1216       F  0.36827265  0.20557770  0.16255233    -0.20930
F1217       F  0.39773524  0.24627213  0.12835282    -0.20610
F1218       F  0.38243352  0.08968423  0.02169379    -0.20660
F1219       F  0.44162572  0.08247807  0.03138646    -0.20980
F1220       F  0.42113995  0.13018500  0.00077047    -0.23650
C1221       C  0.53036714  0.00532498  0.12763975    -0.06490
C1222       C  0.50136049  0.02444215  0.14369312    -0.00560
C1223       C  0.48213626  0.00392393  0.17099095    -0.09140
C1224       C  0.48669829  0.96562781  0.17178437    -0.06510
C1225       C  0.51497050  0.94933042  0.15219006    -0.00580
C1226       C  0.54252868  0.97369817  0.14418179    -0.09050
C1227       C  0.56792689  0.98109355  0.17581562     0.61330
H1228       H  0.54762373  0.01783833  0.10793474     0.12030
H1229       H  0.46983518  0.94943191  0.18917598     0.12040
C1230       C  0.46129925  0.01951317  0.20208984     0.61570
F1231       F  0.55566411  0.00936282  0.19673231    -0.23600
F1232       F  0.60186827  0.98915756  0.16322620    -0.20930
F1233       F  0.57010328  0.95226557  0.19897910    -0.20610
F1234       F  0.42496033  0.01527617  0.19624581    -0.20660
F1235       F  0.46990592  0.05487862  0.20731684    -0.20980
F1236       F  0.46999510  0.00176804  0.23375636    -0.23650
C1237       C  0.52963511  0.10369161  0.97416867    -0.06490
C1238       C  0.51119939  0.13122429  0.95594818    -0.00560
C1239       C  0.49249656  0.15653125  0.97919651    -0.09140
C1240       C  0.49166363  0.15119062  0.01757846    -0.06510
C1241       C  0.50874683  0.12248400  0.03520050    -0.00580
C1242       C  0.52865440  0.09863438  0.01233436    -0.09050
C1243       C  0.54976206  0.06765252  0.02759260     0.61330
H1244       H  0.54433157  0.08471992  0.95765108     0.12030
H1245       H  0.47719012  0.17021517  0.03429867     0.12040
C1246       C  0.47434239  0.19100997  0.96713979     0.61570
F1247       F  0.56073690  0.04368394  0.00113670    -0.23600
F1248       F  0.52917121  0.04870689  0.05217021    -0.20930
F1249       F  0.58012790  0.08139759  0.04376595    -0.20610
F1250       F  0.43770941  0.18880355  0.97229028    -0.20660
F1251       F  0.48101836  0.19914589  0.93174228    -0.20980
F1252       F  0.48668973  0.21954933  0.98779583    -0.23650
C1253       C  0.88348463  0.82267158  0.58727065    -0.06490
C1254       C  0.90923676  0.82200423  0.55918739    -0.00560
C1255       C  0.93456134  0.79387526  0.56241603    -0.09140
C1256       C  0.94507617  0.78305570  0.59690723    -0.06510
C1257       C  0.92360911  0.79011616  0.62722361    -0.00580
C1258       C  0.89045641  0.80807092  0.62179596    -0.09050
C1259       C  0.86235912  0.81146712  0.65145990     0.61330
H1260       H  0.85752483  0.83383631  0.58212799     0.12030
H1261       H  0.96712060  0.76422646  0.59903289     0.12040
C1262       C  0.93805946  0.76458629  0.53455837     0.61570
F1263       F  0.83038947  0.82528481  0.63859009    -0.23600
F1264       F  0.87480509  0.83426089  0.67826035    -0.20930
F1265       F  0.85494486  0.77803220  0.66600267    -0.20610
F1266       F  0.97342711  0.76169552  0.52409356    -0.20660
F1267       F  0.91588252  0.77046197  0.50562839    -0.20980
F1268       F  0.92762128  0.73191236  0.54923666    -0.23650
C1269       C  0.83305829  0.89447571  0.56360163    -0.06490
C1270       C  0.87081589  0.89594839  0.56404724    -0.00560
C1271       C  0.88852030  0.90515572  0.59663304    -0.09140
C1272       C  0.86768248  0.90919805  0.62830048    -0.06510
C1273       C  0.82994904  0.90666836  0.62755025    -0.00580
C1274       C  0.81221173  0.89969754  0.59460789    -0.09050
C1275       C  0.77154317  0.89615886  0.59226752     0.61330
H1276       H  0.81974805  0.88778382  0.53883495     0.12030
H1277       H  0.88061667  0.91566082  0.65371865     0.12040
C1278       C  0.92864472  0.91216346  0.59762048     0.61570
F1279       F  0.76055187  0.88328294  0.55889956    -0.23600
F1280       F  0.75580089  0.92933287  0.59743007    -0.20930
F1281       F  0.75923887  0.87249280  0.61836912    -0.20610
F1282       F  0.93729757  0.93827309  0.57252734    -0.20660
F1283       F  0.94727476  0.88122878  0.58966191    -0.20980
F1284       F  0.93977114  0.92412001  0.63127404    -0.23650
C1285       C  0.80644802  0.90311862  0.40091213    -0.06490
C1286       C  0.82481583  0.91586912  0.37062734    -0.00560
C1287       C  0.86262235  0.92018442  0.37190331    -0.09140
C1288       C  0.88062540  0.91231961  0.40438247    -0.06510
C1289       C  0.86278156  0.89613633  0.43369777    -0.00580
C1290       C  0.82478435  0.89119263  0.43171075    -0.09050
C1291       C  0.80178216  0.87256550  0.45994442     0.61330
H1292       H  0.77746223  0.90009416  0.39951264     0.12030
H1293       H  0.90912743  0.91748004  0.40658430     0.12040
C1294       C  0.88398724  0.93182407  0.33886731     0.61570
F1295       F  0.77919105  0.89735297  0.47596043    -0.23600
F1296       F  0.82153196  0.85603437  0.48631629    -0.20930
F1297       F  0.78099046  0.84633137  0.44350695    -0.20610
F1298       F  0.86891000  0.96200808  0.32343363    -0.20660
F1299       F  0.88392142  0.90431078  0.31376120    -0.20980
F1300       F  0.91936425  0.93970987  0.34740511    -0.23650
C1301       C  0.93701315  0.84905119  0.40290770    -0.06490
C1302       C  0.91267645  0.83533311  0.42849005    -0.00560
C1303       C  0.89172750  0.80431486  0.41982239    -0.09140
C1304       C  0.89903295  0.78610874  0.38747919    -0.06510
C1305       C  0.92514171  0.79857015  0.36353477    -0.00580
C1306       C  0.94227413  0.83189204  0.36952206    -0.09050
C1307       C  0.96534533  0.84905428  0.34034727     0.61330
H1308       H  0.95188123  0.87322989  0.40935048     0.12030
H1309       H  0.88494911  0.76126988  0.38132597     0.12040
C1310       C  0.86322131  0.78749372  0.44391383     0.61570
F1311       F  0.97800519  0.88250952  0.35053041    -0.23600
F1312       F  0.94512306  0.85354200  0.30939996    -0.20930
F1313       F  0.99428867  0.82726255  0.33248399    -0.20610
F1314       F  0.83023995  0.78997225  0.42700226    -0.20660
F1315       F  0.86071513  0.80330576  0.47745725    -0.20980
F1316       F  0.87096151  0.75154242  0.44912024    -0.23650
C1317       C  0.92367606  0.11487204  0.59335049    -0.06490
C1318       C  0.91683042  0.13295428  0.56067544    -0.00560
C1319       C  0.91952894  0.17148425  0.56113015    -0.09140
C1320       C  0.93083081  0.18916581  0.59294861    -0.06510
C1321       C  0.93510300  0.17109412  0.62573204    -0.00580
C1322       C  0.92977983  0.13326162  0.62629997    -0.09050
C1323       C  0.92939996  0.11225137  0.66145001     0.61330
H1324       H  0.92313126  0.08589367  0.59318587     0.12030
H1325       H  0.93389879  0.21816188  0.59277889     0.12040
C1326       C  0.90826473  0.19645604  0.53085062     0.61570
F1327       F  0.92611658  0.07563394  0.65562499    -0.23600
F1328       F  0.90025061  0.12287367  0.68207940    -0.20930
F1329       F  0.96080840  0.11835416  0.68044264    -0.20610
F1330       F  0.88117087  0.21873153  0.54318292    -0.20660
F1331       F  0.89555579  0.17853174  0.50104128    -0.20980
F1332       F  0.93693764  0.21798860  0.52074005    -0.23650
C1333       C  0.86381843  0.04788314  0.58275723    -0.06490
C1334       C  0.85594819  0.07876863  0.56307953    -0.00560
C1335       C  0.82746767  0.10142933  0.57472228    -0.09140
C1336       C  0.80894063  0.09280695  0.60688492    -0.06510
C1337       C  0.81652668  0.06139646  0.62600662    -0.00580
C1338       C  0.84402854  0.03835322  0.61349968    -0.09050
C1339       C  0.84979213  0.00185699  0.62975847     0.61330
H1340       H  0.88505453  0.03056151  0.57299054     0.12030
H1341       H  0.78774944  0.11004818  0.61690610     0.12040
C1342       C  0.81598861  0.13403313  0.55323542     0.61570
F1343       F  0.88067685  0.98580166  0.61668826    -0.23600
F1344       F  0.82073399  0.98104698  0.62006729    -0.20930
F1345       F  0.85240036  0.00385541  0.66701655    -0.20610
F1346       F  0.81016469  0.12482743  0.51757599    -0.20660
F1347       F  0.84234255  0.15988410  0.55487425    -0.20980
F1348       F  0.78458365  0.14886746  0.56662514    -0.23650
C1349       C  0.95282801  0.13024788  0.37406240    -0.06490
C1350       C  0.93763609  0.16467553  0.37136716    -0.00560
C1351       C  0.91060351  0.17518563  0.39588437    -0.09140
C1352       C  0.90155839  0.15190201  0.42424024    -0.06510
C1353       C  0.91922025  0.11906825  0.42925481    -0.00580
C1354       C  0.94387301  0.10681652  0.40278157    -0.09050
C1355       C  0.96049583  0.06949206  0.40418098     0.61330
H1356       H  0.97210944  0.12198929  0.35371677     0.12030
H1357       H  0.88012553  0.15899098  0.44262410     0.12040
C1358       C  0.89104169  0.21060447  0.39153293     0.61570
F1359       F  0.97416912  0.05933323  0.37087494    -0.23600
F1360       F  0.93613342  0.04435372  0.41469143    -0.20930
F1361       F  0.98714446  0.06760755  0.42927961    -0.20610
F1362       F  0.87354433  0.21113397  0.35856847    -0.20660
F1363       F  0.91545054  0.23869234  0.39285877    -0.20980
F1364       F  0.86572256  0.21589229  0.41851096    -0.23650
C1365       C  0.84956824  0.07258637  0.36831789    -0.06490
C1366       C  0.81250921  0.07826798  0.37045746    -0.00560
C1367       C  0.79627916  0.08275128  0.40487337    -0.09140
C1368       C  0.81881895  0.08240418  0.43552143    -0.06510
C1369       C  0.85463977  0.07054221  0.43274699    -0.00580
C1370       C  0.86622974  0.05798597  0.39850124    -0.09050
C1371       C  0.87329841  0.01827447  0.39224833     0.61330
H1372       H  0.86122080  0.06671660  0.34201791     0.12030
H1373       H  0.80843826  0.09033895  0.46154612     0.12040
C1374       C  0.75616890  0.08815219  0.40900873     0.61570
F1375       F  0.84159018  0.00121969  0.38253968    -0.23600
F1376       F  0.88588475  0.00120093  0.42229574    -0.20930
F1377       F  0.89804293  0.01409938  0.36454501    -0.20610
F1378       F  0.73815663  0.05706978  0.39928018    -0.20660
F1379       F  0.74510965  0.11600248  0.38705192    -0.20980
F1380       F  0.74687468  0.09630056  0.44435983    -0.23650
C1381       C  0.84244799  0.96027473  0.50667123    -0.06490
C1382       C  0.87600361  0.94402330  0.49847125    -0.00560
C1383       C  0.90459993  0.96768178  0.48971869    -0.08300
C1384       C  0.89971280  0.00490197  0.49168766    -0.06510
C1385       C  0.86757834  0.02163989  0.50088884    -0.00580
C1386       C  0.83765552  0.99853844  0.50782154    -0.09050
C1387       C  0.80014202  0.01223827  0.51500449     0.61330
H1388       H  0.81938166  0.94326412  0.51147021     0.12030
H1389       H  0.92095440  0.02171635  0.48173115     0.12040
C1390       C  0.94214551  0.95655868  0.47958306     0.61570
F1391       F  0.78830011  0.99958680  0.54811692    -0.23600
F1392       F  0.77736278  0.99967606  0.48826694    -0.20930
F1393       F  0.79834272  0.04920922  0.51543230    -0.20610
F1394       F  0.95365949  0.97517277  0.44927199    -0.20660
F1395       F  0.94592939  0.92094773  0.47149648    -0.20980
F1396       F  0.96360992  0.96508756  0.50875069    -0.23650
C1397       C  0.18760187  0.07662738  0.56370692    -0.06490
C1398       C  0.15001122  0.07925696  0.56970798    -0.00560
C1399       C  0.13804611  0.07580238  0.60655678    -0.09140
C1400       C  0.16340413  0.07429012  0.63438262    -0.06510
C1401       C  0.20000161  0.07048897  0.62778774    -0.00580
C1402       C  0.21264887  0.07142804  0.59185447    -0.09050
C1403       C  0.25242300  0.06796792  0.58344344     0.61330
H1404       H  0.19756299  0.07797082  0.53640301     0.12030
H1405       H  0.15392288  0.07278088  0.66215476     0.12040
C1406       C  0.10031943  0.06951264  0.62009788     0.61570
F1407       F  0.25988537  0.07466125  0.54743723    -0.23600
F1408       F  0.26378086  0.03353594  0.59118268    -0.20930
F1409       F  0.27179810  0.09232475  0.60400348    -0.20610
F1410       F  0.07666070  0.06452532  0.59299903    -0.20660
F1411       F  0.08956764  0.09816092  0.64129914    -0.20980
F1412       F  0.09925772  0.03862948  0.64095343    -0.23650
C1413       C  0.12657190  0.15979114  0.57522714    -0.06490
C1414       C  0.09548710  0.14043972  0.56472338    -0.00560
C1415       C  0.06277747  0.14692807  0.58417416    -0.09140
C1416       C  0.06243396  0.17325592  0.61077752    -0.06510
C1417       C  0.09380008  0.18934054  0.62318004    -0.00580
C1418       C  0.12662208  0.18291631  0.60545220    -0.09050
C1419       C  0.16094149  0.20087412  0.61810355     0.61330
H1420       H  0.15129991  0.15556483  0.56031913     0.12030
H1421       H  0.03738152  0.17854984  0.62497288     0.12040
C1422       C  0.02813125  0.12574458  0.58286103     0.61570
F1423       F  0.18974966  0.19269578  0.59584777    -0.23600
F1424       F  0.16900762  0.18954445  0.65273008    -0.20930
F1425       F  0.15650709  0.23774420  0.61822995    -0.20610
F1426       F  0.01854843  0.11464408  0.61733851    -0.20660
F1427       F  0.03100205  0.09573599  0.56257423    -0.20980
F1428       F  0.00099392  0.14705604  0.56958180    -0.23650
C1429       C  0.07149110  0.16106023  0.38105435    -0.06490
C1430       C  0.09942299  0.18392706  0.37189850    -0.00560
C1431       C  0.13158617  0.18251313  0.39223044    -0.09140
C1432       C  0.13251548  0.16069352  0.42390737    -0.06510
C1433       C  0.10384984  0.13721734  0.43309924    -0.00580
C1434       C  0.07476809  0.13555756  0.40840423    -0.09050
C1435       C  0.04595039  0.10800069  0.40834557     0.61330
H1436       H  0.04733326  0.16127729  0.36457207     0.12030
H1437       H  0.15587260  0.16134972  0.44122161     0.12040
C1438       C  0.16438525  0.20338970  0.38011486     0.61570
F1439       F  0.03947029  0.09622276  0.37338378    -0.23600
F1440       F  0.01574040  0.12478339  0.42158911    -0.20930
F1441       F  0.05482309  0.07825980  0.42821116    -0.20610
F1442       F  0.15662154  0.23964646  0.37902167    -0.20660
F1443       F  0.17440630  0.19201900  0.34590899    -0.20980
F1444       F  0.19317759  0.19826198  0.40314488    -0.23650
C1445       C  0.21106393  0.07631663  0.40516073    -0.06490
C1446       C  0.19395959  0.06233505  0.37457985    -0.00560
C1447       C  0.15627920  0.05689853  0.37507551    -0.09140
C1448       C  0.13747421  0.06327455  0.40742907    -0.06510
C1449       C  0.15435879  0.07733267  0.43825336    -0.00580
C1450       C  0.19149672  0.08646206  0.43608509    -0.09050
C1451       C  0.21168179  0.10864858  0.46389773     0.61330
H1452       H  0.23972011  0.08169304  0.40393515     0.12030
H1453       H  0.10935930  0.05678145  0.40890850     0.12040
C1454       C  0.13586260  0.04439151  0.34178538     0.61570
F1455       F  0.22842859  0.13722715  0.44677757    -0.23600
F1456       F  0.23774987  0.08760734  0.47969885    -0.20930
F1457       F  0.18980821  0.12281010  0.49047417    -0.20610
F1458       F  0.15111092  0.01345112  0.32798240    -0.20660
F1459       F  0.13691035  0.07101851  0.31582263    -0.20980
F1460       F  0.10010111  0.03717194  0.34939983    -0.23650
C1461       C  0.98393395  0.15144487  0.49203020    -0.06490
C1462       C  0.96736990  0.11742752  0.49732279    -0.00560
C1463       C  0.99068034  0.08778009  0.50142315    -0.09140
C1464       C  0.02709202  0.09203665  0.49326364    -0.06510
C1465       C  0.04459426  0.12528253  0.49482384    -0.00580
C1466       C  0.02221960  0.15623277  0.49397735    -0.09050
C1467       C  0.03695701  0.19411808  0.49437261     0.61330
H1468       H  0.96719712  0.17435611  0.48694220     0.12030
H1469       H  0.04241138  0.06828296  0.48837545     0.12040
C1470       C  0.97989859  0.05083122  0.51464845     0.61570
F1471       F  0.02357426  0.21203900  0.52428516    -0.23600
F1472       F  0.02609927  0.21181266  0.46344298    -0.20930
F1473       F  0.07406181  0.19519069  0.49586453    -0.20610
F1474       F  0.98252596  0.02725949  0.48611470    -0.20660
F1475       F  0.94630536  0.05002553  0.52997996    -0.20980
F1476       F  0.00283639  0.03904271  0.54128624    -0.23650
C1477       C  0.06788455  0.84134857  0.58316774    -0.06490
C1478       C  0.10041121  0.83795392  0.56418350    -0.00560
C1479       C  0.12580905  0.81216826  0.57663941    -0.09140
C1480       C  0.11844529  0.79281444  0.60871608    -0.06510
C1481       C  0.08650994  0.79768096  0.62825543    -0.00580
C1482       C  0.06133145  0.82316955  0.61583348    -0.09050
C1483       C  0.02858191  0.83275380  0.63815952     0.61330
H1484       H  0.04814613  0.86006332  0.57347185     0.12030
H1485       H  0.13766236  0.77321520  0.61829922     0.12040
C1486       C  0.16039604  0.80270870  0.55693977     0.61570
F1487       F  0.00919379  0.86055530  0.62307792    -0.23600
F1488       F  0.03895277  0.84308070  0.67254496    -0.20930
F1489       F  0.00642186  0.80337263  0.64060539    -0.20610
F1490       F  0.18941523  0.81173153  0.57847888    -0.20660
F1491       F  0.16419315  0.81963319  0.52393559    -0.20980
F1492       F  0.16111010  0.76608350  0.55062018    -0.23650
C1493       C  0.19472078  0.89166122  0.56615400    -0.06490
C1494       C  0.15716913  0.89613196  0.56900117    -0.00560
C1495       C  0.14278779  0.90838383  0.60277050    -0.09140
C1496       C  0.16636134  0.91402259  0.63187965    -0.06510
C1497       C  0.20353576  0.91018229  0.62846965    -0.00580
C1498       C  0.21821602  0.89892894  0.59515414    -0.09050
C1499       C  0.25839772  0.89394353  0.59064494     0.61330
H1500       H  0.20565495  0.88251562  0.54058359     0.12030
H1501       H  0.15558284  0.92312453  0.65761271     0.12040
C1502       C  0.10404404  0.91832347  0.61071507     0.61570
F1503       F  0.26710344  0.88048952  0.55682232    -0.23600
F1504       F  0.27080063  0.87013962  0.61639996    -0.20930
F1505       F  0.27574955  0.92658702  0.59487994    -0.20610
F1506       F  0.09135424  0.89751554  0.63898462    -0.20660
F1507       F  0.08133634  0.91401345  0.58193770    -0.20980
F1508       F  0.10265549  0.95401861  0.62110542    -0.23650
C1509       C  0.07058702  0.83651742  0.37545089    -0.06490
C1510       C  0.08487071  0.80179817  0.37402613    -0.00560
C1511       C  0.10593133  0.78945160  0.40316384    -0.09140
C1512       C  0.11260013  0.81276679  0.43257901    -0.06510
C1513       C  0.09803441  0.84761352  0.43425604    -0.00580
C1514       C  0.07576729  0.85925036  0.40548692    -0.09050
C1515       C  0.05506113  0.89400729  0.40555762     0.61330
H1516       H  0.05461404  0.84589616  0.35296391     0.12030
H1517       H  0.12892392  0.80375152  0.45498940     0.12040
C1518       C  0.12131439  0.75185158  0.40288594     0.61570
F1519       F  0.01883492  0.88624479  0.40640870    -0.23600
F1520       F  0.06287330  0.91321636  0.37450797    -0.20930
F1521       F  0.06243683  0.91519986  0.43491804    -0.20610
F1522       F  0.14339005  0.74759603  0.37304563    -0.20660
F1523       F  0.09360768  0.72702393  0.40122652    -0.20980
F1524       F  0.14129451  0.74495078  0.43362556    -0.23650
C1525       C  0.17859055  0.87409208  0.42385983    -0.06490
C1526       C  0.15540214  0.90187491  0.43510570    -0.00560
C1527       C  0.15314600  0.93327456  0.41346445    -0.09140
C1528       C  0.17586841  0.93664998  0.38322108    -0.06510
C1529       C  0.19919375  0.90927897  0.37256832    -0.00580
C1530       C  0.19986737  0.87691728  0.39234859    -0.09050
C1531       C  0.22326310  0.84587958  0.38034029     0.61330
H1532       H  0.18001033  0.85005272  0.44022678     0.12030
H1533       H  0.17521402  0.96112659  0.36739529     0.12040
C1534       C  0.12875109  0.96476199  0.42055306     0.61570
F1535       F  0.22067953  0.81697847  0.40373359    -0.23600
F1536       F  0.25880855  0.85681427  0.37890782    -0.20930
F1537       F  0.21264424  0.83445085  0.34638063    -0.20610
F1538       F  0.15005018  0.99459192  0.42506740    -0.20660
F1539       F  0.10742477  0.96107711  0.45072203    -0.20980
F1540       F  0.10676706  0.97017025  0.39099928    -0.23650
C1541       C  0.12639536  0.96732767  0.52769811    -0.06490
C1542       C  0.15333688  0.95000108  0.50861575    -0.00560
C1543       C  0.18101332  0.97278546  0.49443790    -0.09140
C1544       C  0.17532471  0.01112830  0.49393544    -0.06510
C1545       C  0.14277280  0.02692211  0.50624927    -0.00580
C1546       C  0.11781484  0.00320559  0.52322320    -0.09050
C1547       C  0.07883750  0.01084058  0.53147984     0.61330
H1548       H  0.10856035  0.95165546  0.54357121     0.12030
H1549       H  0.19618865  0.02875588  0.48394066     0.12040
C1550       C  0.21822351  0.95833104  0.48650439     0.61570
F1551       F  0.05772241  0.99585251  0.50471209    -0.23600
F1552       F  0.07168458  0.04607277  0.53256617    -0.20930
F1553       F  0.06886725  0.99660204  0.56462396    -0.20610
F1554       F  0.21720554  0.93018489  0.46246672    -0.20660
F1555       F  0.23330477  0.94645275  0.51838987    -0.20980
F1556       F  0.24050976  0.98457789  0.47214701    -0.23650
C1557       C  0.03251821  0.82196063  0.48323786    -0.06490
C1558       C  0.04734002  0.85264510  0.49948975    -0.00560
C1559       C  0.02245711  0.87952496  0.50995102    -0.09140
C1560       C  0.98546337  0.87157633  0.51221116    -0.06510
C1561       C  0.96954999  0.84173320  0.49508747    -0.00580
C1562       C  0.99474119  0.81728812  0.47776630    -0.09050
C1563       C  0.98602245  0.78659602  0.45212377     0.61330
H1564       H  0.05096276  0.80218464  0.47255045     0.12030
H1565       H  0.96816655  0.89169805  0.52405038     0.12040
C1566       C  0.03217201  0.91866899  0.51283928     0.61570
F1567       F  0.99699106  0.79594445  0.41763299    -0.23600
F1568       F  0.95048732  0.77777328  0.45131597    -0.20930
F1569       F  0.00457835  0.75598045  0.46199221    -0.20610
F1570       F  0.01650761  0.93655883  0.48445687    -0.20660
F1571       F  0.06797181  0.92472666  0.50935259    -0.20980
F1572       F  0.02040285  0.93276965  0.54540029    -0.23650
loop_ 
_geom_bond_atom_site_label_1 
_geom_bond_atom_site_label_2 
_geom_bond_distance 
_geom_bond_site_symmetry_2 
_ccdc_geom_bond_type 
C1            C2   1.428       .  A
C1            C6   1.440       .  A
C1         C1478   1.506       .  S
C2            C3   1.415       .  A
C2         C1558   1.531       .  S
C3            C4   1.437       .  A
C3         C1513   1.503       .  S
C4            C5   1.442       .  A
C4         C1526   1.495       .  S
C5            C6   1.439       .  A
C5         C1542   1.542       .  S
C6         C1494   1.508       .  S
C7            C8   1.433       .  A
C7           C12   1.431       .  A
C7         C1449   1.493       .  S
C8            C9   1.430       .  A
C8         C1545   1.532       .  S
C9           C10   1.449       .  A
C9         C1398   1.535       .  S
C10          C11   1.446       .  A
C10        C1414   1.501       .  S
C11          C12   1.432       .  A
C11        C1465   1.522       .  S
C12        C1433   1.527       .  S
C13          C14   1.425       .  A
C13          C18   1.447       .  A
C13        C1318   1.526       .  S
C14          C15   1.431       .  A
C14        C1462   1.522       .  S
C15          C16   1.433       .  A
C15        C1353   1.482       .  S
C16          C17   1.411       .  A
C16        C1369   1.507       .  S
C17          C18   1.436       .  A
C17        C1385   1.532       .  S
C18        C1334   1.485       .  S
C19          C20   1.433       .  A
C19          C24   1.434       .  A
C19        C1302   1.477       .  S
C20          C21   1.444       .  A
C20        C1561   1.557       .  S
C21          C22   1.464       .  A
C21        C1254   1.543       .  S
C22          C23   1.426       .  A
C22        C1270   1.494       .  S
C23          C24   1.411       .  A
C23        C1382   1.533       .  S
C24        C1289   1.498       .  S
C25          C26   1.426       .  A
C25          C30   1.431       .  A
C25        C1161   1.434       .  S
C26          C27   1.440       .  A
C26        C1174   1.562       .  S
C27          C28   1.442       .  A
C27        C1241   1.557       .  S
C28          C29   1.443       .  A
C28        C1206   1.500       .  S
C29          C30   1.439       .  A
C29        C1193   1.515       .  S
C30        C1222   1.555       .  S
C31          C32   1.439       .  A
C31          C36   1.427       .  A
C31        C1126   1.478       .  S
C32          C33   1.461       .  A
C32        C1238   1.564       .  S
C33          C34   1.460       .  A
C33        C1097   1.536       .  S
C34          C35   1.428       .  A
C34        C1078   1.518       .  S
C35          C36   1.410       .  A
C35        C1142   1.522       .  S
C36        C1113   1.511       .  S
C37          C38   1.442       .  A
C37          C42   1.438       .  A
C37        C1033   1.508       .  S
C38          C39   1.443       .  A
C38        C1225   1.542       .  S
C39          C40   1.436       .  A
C39         C998   1.507       .  S
C40          C41   1.427       .  A
C40        C1014   1.524       .  S
C41          C42   1.427       .  A
C41        C1062   1.508       .  S
C42        C1046   1.519       .  S
C43          C44   1.408       .  A
C43          C48   1.423       .  A
C43         C966   1.478       .  S
C44          C45   1.416       .  A
C44        C1145   1.529       .  S
C45          C46   1.441       .  A
C45         C934   1.476       .  S
C46          C47   1.443       .  A
C46         C953   1.540       .  S
C47          C48   1.416       .  A
C47        C1065   1.519       .  S
C48         C982   1.477       .  S
C49          C50   1.437       .  A
C49          C54   1.453       .  A
C49         C870   1.536       .  S
C50          C51   1.443       .  A
C50         C918   1.531       .  S
C51          C52   1.422       .  A
C51         C838   1.510       .  S
C52          C53   1.420       .  A
C52         C857   1.498       .  S
C53          C54   1.430       .  A
C53         C905   1.524       .  S
C54         C886   1.503       .  S
C55          C56   1.420       .  A
C55          C60   1.431       .  A
C55         C777   1.511       .  S
C56          C57   1.437       .  A
C56         C902   1.542       .  S
C57          C58   1.445       .  A
C57         C809   1.534       .  S
C58          C59   1.445       .  A
C58         C790   1.515       .  S
C59          C60   1.444       .  A
C59         C822   1.549       .  S
C60         C758   1.496       .  S
C61          C62   1.433       .  A
C61          C66   1.464       .  A
C61         C710   1.562       .  S
C62          C63   1.434       .  A
C62         C825   1.540       .  S
C63          C64   1.426       .  A
C63         C681   1.488       .  S
C64          C65   1.421       .  A
C64         C694   1.520       .  S
C65          C66   1.446       .  A
C65         C742   1.526       .  S
C66         C726   1.504       .  S
C67          C68   1.404       .  A
C67          C72   1.453       .  A
C67         C649   1.516       .  S
C68          C69   1.425       .  A
C68         C921   1.571       .  S
C69          C70   1.362       .  A
C69         C614   1.518       .  S
C70          C71   1.442       .  A
C70         C630   1.457       .  S
C71          C72   1.449       .  A
C71         C745   1.527       .  S
C72         C665   1.488       .  S
N73          N74   1.325       .  A
N73          N79   1.317       .  A
N73        Mn102   2.214       .  S
N74          C81   1.356       .  A
N75          N77   1.316       .  A
N75          N76   1.312       .  A
N75         Mn91   2.189       .  S
N76          C82   1.346       .  A
N77          N78   1.330       .  A
N77        Mn102   2.226       .  S
N78          C82   1.359       .  A
N79          N80   1.313       .  A
N79         Mn91   2.184       .  S
N80          C81   1.346       .  A
C81         C498   1.460       .  S
C82         C251   1.470       .  S
N83          N89   1.315       .  A
N83          N84   1.322       .  A
N83        Mn113   2.208       .  S
N84          C92   1.353       .  A
N85          N86   1.320       .  A
N85          N87   1.313       .  A
N85         Mn91   2.196       .  S
N86          C93   1.351       .  A
N87          N88   1.323       .  A
N87        Mn113   2.207       .  S
N88          C93   1.355       .  A
N89          N90   1.319       .  A
N89         Mn91   2.187       .  S
N90          C92   1.348       .  A
Mn91       Cl115   2.496       .  S
C92         C969   1.469       .  S
C93        C1497   1.480       .  S
N94          N95   1.328       .  A
N94         N100   1.318       .  A
N94        Mn102   2.212   1_545  S
N95         C103   1.356       .  A
N96          N98   1.316       .  A
N96          N97   1.309       .  A
N96        Mn114   2.174       .  S
N97         C104   1.343       .  A
N98          N99   1.329       .  A
N98        Mn102   2.221   1_545  S
N99         C104   1.359       .  A
N100        N101   1.312       .  A
N100       Mn114   2.201       .  S
N101        C103   1.348       .  A
Mn102      Cl115   2.602       .  S
C103        C374   1.466       .  S
C104        C126   1.461       .  S
N105        N106   1.322       .  A
N105        N111   1.314       .  A
N105       Mn113   2.199   1_545  S
N106        C116   1.355       .  A
N107        N108   1.319       .  A
N107        N109   1.313       .  A
N107       Mn114   2.180       .  S
N108        C117   1.350       .  A
N109        N110   1.318       .  A
N109       Mn113   2.200   1_545  S
N110        C117   1.353       .  A
N111        N112   1.317       .  A
N111       Mn114   2.196       .  S
N112        C116   1.353       .  A
Mn113      Cl115   2.579       .  S
Mn114      Cl115   2.494   1_545  S
C116       C1401   1.480       .  S
C117       C1110   1.462       .  S
N118        N119   1.327       .  A
N118        N124   1.318       .  A
N118       Mn147   2.217       .  S
N119        C126   1.356       .  A
N120        N122   1.317       .  A
N120        N121   1.313       .  A
N120       Mn136   2.197       .  S
N121        C127   1.346       .  A
N122        N123   1.329       .  A
N122       Mn147   2.219       .  S
N123        C127   1.358       .  A
N124        N125   1.310       .  A
N124       Mn136   2.188       .  S
N125        C126   1.346       .  A
C127        C373   1.470       .  S
N128        N134   1.314       .  A
N128        N129   1.326       .  A
N128       Mn158   2.216       .  S
N129        C137   1.359       .  A
N130        N131   1.322       .  A
N130        N132   1.310       .  A
N130       Mn136   2.202       .  S
N131        C138   1.357       .  A
N132        N133   1.312       .  A
N132       Mn158   2.157       .  S
N133        C138   1.349       .  A
N134        N135   1.314       .  A
N134       Mn136   2.195       .  S
N135        C137   1.349       .  A
Mn136      Cl160   2.497       .  S
C137        C873   1.494       .  S
C138       C1417   1.462       .  S
N139        N140   1.329       .  A
N139        N145   1.318       .  A
N139       Mn147   2.227   1_655  S
N140        C148   1.358       .  A
N141        N143   1.314       .  A
N141        N142   1.311       .  A
N141       Mn159   2.157       .  S
N142        C149   1.341       .  A
N143        N144   1.325       .  A
N143       Mn147   2.218   1_655  S
N144        C149   1.358       .  A
N145        N146   1.315       .  A
N145       Mn159   2.205       .  S
N146        C148   1.349       .  A
Mn147      Cl160   2.595       .  S
C148        C477   1.473       .  S
C149        C531   1.454       .  S
N150        N151   1.327       .  A
N150        N156   1.316       .  A
N150       Mn158   2.237   1_655  S
N151        C161   1.360       .  A
N152        N153   1.318       .  A
N152        N154   1.309       .  A
N152       Mn159   2.174       .  S
N153        C162   1.354       .  A
N154        N155   1.312       .  A
N154       Mn158   2.160   1_655  S
N155        C162   1.345       .  A
N156        N157   1.322       .  A
N156       Mn159   2.205       .  S
N157        C161   1.350       .  A
Mn158      Cl160   2.574       .  S
Mn159      Cl160   2.504   1_655  S
C161       C1321   1.499       .  S
C162        C646   1.474       .  S
N163        N164   1.328       .  A
N163        N169   1.317       .  A
N163       Mn192   2.230       .  S
N164        C171   1.359       .  A
N165        N167   1.318       .  A
N165        N166   1.312       .  A
N165       Mn181   2.190       .  S
N166        C172   1.346       .  A
N167        N168   1.326       .  A
N167       Mn192   2.213       .  S
N168        C172   1.356       .  A
N169        N170   1.311       .  A
N169       Mn181   2.175       .  S
N170        C171   1.343       .  A
C171        C318   1.464       .  S
C172        C227   1.460       .  S
N173        N179   1.313       .  A
N173        N174   1.322       .  A
N173       Mn203   2.205       .  S
N174        C182   1.354       .  A
N175        N176   1.322       .  A
N175        N177   1.315       .  A
N175       Mn181   2.208       .  S
N176        C183   1.352       .  A
N177        N178   1.326       .  A
N177       Mn203   2.222       .  S
N178        C183   1.357       .  A
N179        N180   1.322       .  A
N179       Mn181   2.196       .  S
N180        C182   1.351       .  A
Mn181      Cl205   2.493       .  S
C182        C761   1.477       .  S
C183       C1510   1.486       .  S
N184        N185   1.330       .  A
N184        N190   1.315       .  A
N184       Mn192   2.234   1_655  S
N185        C193   1.361       .  A
N186        N188   1.317       .  A
N186        N187   1.312       .  A
N186       Mn204   2.187       .  S
N187        C194   1.346       .  A
N188        N189   1.327       .  A
N188       Mn192   2.218   1_655  S
N189        C194   1.358       .  A
N190        N191   1.310       .  A
N190       Mn204   2.163       .  S
N191        C193   1.341       .  A
Mn192      Cl205   2.597       .  S
C193        C577   1.465       .  S
C194        C431   1.463       .  S
N195        N196   1.320       .  A
N195        N201   1.313       .  A
N195       Mn203   2.201   1_655  S
N196        C206   1.354       .  A
N197        N198   1.318       .  A
N197        N199   1.314       .  A
N197       Mn204   2.180       .  S
N198        C207   1.347       .  A
N199        N200   1.323       .  A
N199       Mn203   2.213   1_655  S
N200        C207   1.355       .  A
N201        N202   1.316       .  A
N201       Mn204   2.164       .  S
N202        C206   1.344       .  A
Mn203      Cl205   2.576       .  S
Mn204      Cl205   2.492   1_655  S
C206       C1305   1.458       .  S
C207        C678   1.471       .  S
N208        N209   1.326       .  A
N208        N214   1.315       .  A
N208       Mn237   2.225   1_554  S
N209        C216   1.358       .  A
N210        N212   1.313       .  A
N210        N211   1.326       .  A
N210       Mn226   2.223       .  S
N211        C217   1.357       .  A
N212        N213   1.320       .  A
N212       Mn237   2.205   1_554  S
N213        C217   1.354       .  A
N214        N215   1.321       .  A
N214       Mn226   2.207       .  S
N215        C216   1.352       .  A
C216       C1049   1.494       .  S
C217        C774   1.495       .  S
N218        N224   1.318       .  A
N218        N219   1.326       .  A
N218       Mn248   2.219       .  S
N219        C227   1.356       .  A
N220        N221   1.314       .  A
N220        N222   1.318       .  A
N220       Mn226   2.205       .  S
N221        C228   1.349       .  A
N222        N223   1.327       .  A
N222       Mn248   2.210       .  S
N223        C228   1.355       .  A
N224        N225   1.312       .  A
N224       Mn226   2.186       .  S
N225        C227   1.346       .  A
Mn226      Cl250   2.505       .  S
C228        C317   1.467       .  S
N229        N230   1.323       .  A
N229        N235   1.315       .  A
N229       Mn237   2.226       .  S
N230        C238   1.357       .  A
N231        N233   1.313       .  A
N231        N232   1.318       .  A
N231       Mn249   2.180       .  S
N232        C239   1.349       .  A
N233        N234   1.319       .  A
N233       Mn237   2.192       .  S
N234        C239   1.351       .  A
N235        N236   1.319       .  A
N235       Mn249   2.174       .  S
N236        C238   1.345       .  A
Mn237      Cl250   2.575   1_556  S
C238        C854   1.472       .  S
C239        C985   1.461       .  S
N240        N241   1.330       .  A
N240        N246   1.317       .  A
N240       Mn248   2.228   1_556  S
N241        C251   1.359       .  A
N242        N243   1.310       .  A
N242        N244   1.315       .  A
N242       Mn249   2.176       .  S
N243        C252   1.344       .  A
N244        N245   1.328       .  A
N244       Mn248   2.214   1_556  S
N245        C252   1.358       .  A
N246        N247   1.312       .  A
N246       Mn249   2.186       .  S
N247        C251   1.346       .  A
Mn248      Cl250   2.597       .  S
Mn249      Cl250   2.500   1_556  S
C252        C497   1.461       .  S
N253        N254   1.320       .  A
N253        N259   1.312       .  A
N253       Mn282   2.208       .  S
N254        C261   1.356       .  A
N255        N257   1.315       .  A
N255        N256   1.323       .  A
N255       Mn271   2.211       .  S
N256        C262   1.354       .  A
N257        N258   1.322       .  A
N257       Mn282   2.203       .  S
N258        C262   1.353       .  A
N259        N260   1.326       .  A
N259       Mn271   2.217       .  S
N260        C261   1.358       .  A
C261       C1430   1.485       .  S
C262        C793   1.488       .  S
N263        N269   1.316       .  A
N263        N264   1.326       .  A
N263       Mn293   2.208       .  S
N264        C272   1.357       .  A
N265        N266   1.314       .  A
N265        N267   1.320       .  A
N265       Mn271   2.211       .  S
N266        C273   1.351       .  A
N267        N268   1.327       .  A
N267       Mn293   2.214       .  S
N268        C273   1.354       .  A
N269        N270   1.309       .  A
N269       Mn271   2.179       .  S
N270        C272   1.344       .  A
Mn271      Cl295   2.497       .  S
C272        C352   1.456       .  S
C273        C341   1.466       .  S
N274        N275   1.320       .  A
N274        N280   1.312       .  A
N274       Mn282   2.209   1_655  S
N275        C283   1.356       .  A
N276        N278   1.315       .  A
N276        N277   1.317       .  A
N276       Mn294   2.179       .  S
N277        C284   1.345       .  A
N278        N279   1.325       .  A
N278       Mn282   2.221   1_655  S
N279        C284   1.357       .  A
N280        N281   1.321       .  A
N280       Mn294   2.180       .  S
N281        C283   1.350       .  A
Mn282      Cl295   2.576       .  S
C283        C713   1.487       .  S
C284       C1350   1.473       .  S
N285        N286   1.328       .  A
N285        N291   1.314       .  A
N285       Mn293   2.209   1_655  S
N286        C296   1.358       .  A
N287        N288   1.313       .  A
N287        N289   1.317       .  A
N287       Mn294   2.184       .  S
N288        C297   1.346       .  A
N289        N290   1.328       .  A
N289       Mn293   2.226   1_655  S
N290        C297   1.359       .  A
N291        N292   1.309       .  A
N291       Mn294   2.173       .  S
N292        C296   1.344       .  A
Mn293      Cl295   2.593       .  S
Mn294      Cl295   2.499   1_655  S
C296        C408   1.458       .  S
C297        C452   1.466       .  S
N298        N299   1.321       .  A
N298        N304   1.313       .  A
N298       Mn327   2.205       .  S
N299        C306   1.353       .  A
N300        N302   1.316       .  A
N300        N301   1.324       .  A
N300       Mn316   2.215       .  S
N301        C307   1.353       .  A
N302        N303   1.326       .  A
N302       Mn327   2.231       .  S
N303        C307   1.358       .  A
N304        N305   1.323       .  A
N304       Mn316   2.198       .  S
N305        C306   1.352       .  A
C306       C1529   1.479       .  S
C307       C1030   1.491       .  S
N308        N314   1.318       .  A
N308        N309   1.329       .  A
N308       Mn338   2.236       .  S
N309        C317   1.360       .  A
N310        N311   1.313       .  A
N310        N312   1.319       .  A
N310       Mn316   2.204       .  S
N311        C318   1.348       .  A
N312        N313   1.327       .  A
N312       Mn338   2.211       .  S
N313        C318   1.355       .  A
N314        N315   1.312       .  A
N314       Mn316   2.180       .  S
N315        C317   1.344       .  A
Mn316      Cl340   2.502       .  S
N319        N320   1.321       .  A
N319        N325   1.312       .  A
N319       Mn327   2.205   1_545  S
N320        C328   1.356       .  A
N321        N323   1.314       .  A
N321        N322   1.318       .  A
N321       Mn339   2.182       .  S
N322        C329   1.348       .  A
N323        N324   1.324       .  A
N323       Mn327   2.216   1_545  S
N324        C329   1.355       .  A
N325        N326   1.315       .  A
N325       Mn339   2.164       .  S
N326        C328   1.346       .  A
Mn327      Cl340   2.580       .  S
C328       C1190   1.458       .  S
C329       C1446   1.475       .  S
N330        N331   1.330       .  A
N330        N336   1.316       .  A
N330       Mn338   2.236   1_545  S
N331        C341   1.362       .  A
N332        N333   1.312       .  A
N332        N334   1.318       .  A
N332       Mn339   2.196       .  S
N333        C342   1.347       .  A
N334        N335   1.327       .  A
N334       Mn338   2.216   1_545  S
N335        C342   1.357       .  A
N336        N337   1.310       .  A
N336       Mn339   2.163       .  S
N337        C341   1.341       .  A
Mn338      Cl340   2.595       .  S
Mn339      Cl340   2.497   1_545  S
C342        C351   1.465       .  S
N343        N344   1.328       .  A
N343        N349   1.319       .  A
N343       Mn372   2.228       .  S
N344        C351   1.358       .  A
N345        N347   1.318       .  A
N345        N346   1.310       .  A
N345       Mn361   2.187       .  S
N346        C352   1.346       .  A
N347        N348   1.326       .  A
N347       Mn372   2.208       .  S
N348        C352   1.355       .  A
N349        N350   1.312       .  A
N349       Mn361   2.192       .  S
N350        C351   1.345       .  A
N353        N359   1.313       .  A
N353        N354   1.320       .  A
N353       Mn383   2.209       .  S
N354        C362   1.354       .  A
N355        N356   1.323       .  A
N355        N357   1.312       .  A
N355       Mn361   2.210       .  S
N356        C363   1.356       .  A
N357        N358   1.317       .  A
N357       Mn383   2.187       .  S
N358        C363   1.352       .  A
N359        N360   1.325       .  A
N359       Mn361   2.219       .  S
N360        C362   1.358       .  A
Mn361      Cl385   2.503       .  S
C362        C806   1.496       .  S
C363       C1209   1.470       .  S
N364        N365   1.329       .  A
N364        N370   1.317       .  A
N364       Mn372   2.231   1_556  S
N365        C373   1.359       .  A
N366        N368   1.315       .  A
N366        N367   1.309       .  A
N366       Mn384   2.172       .  S
N367        C374   1.342       .  A
N368        N369   1.330       .  A
N368       Mn372   2.228   1_556  S
N369        C374   1.361       .  A
N370        N371   1.313       .  A
N370       Mn384   2.186       .  S
N371        C373   1.346       .  A
Mn372      Cl385   2.598       .  S
N375        N376   1.325       .  A
N375        N381   1.315       .  A
N375       Mn383   2.222   1_556  S
N376        C386   1.358       .  A
N377        N378   1.323       .  A
N377        N379   1.313       .  A
N377       Mn384   2.193       .  S
N378        C387   1.352       .  A
N379        N380   1.317       .  A
N379       Mn383   2.188   1_556  S
N380        C387   1.347       .  A
N381        N382   1.320       .  A
N381       Mn384   2.184       .  S
N382        C386   1.346       .  A
Mn383      Cl385   2.570       .  S
Mn384      Cl385   2.495   1_556  S
C386       C1129   1.477       .  S
C387        C889   1.475       .  S
N388        N389   1.319       .  A
N388        N394   1.312       .  A
N388       Mn417   2.198   1_545  S
N389        C396   1.354       .  A
N390        N392   1.314       .  A
N390        N391   1.315       .  A
N390       Mn406   2.160       .  S
N391        C397   1.343       .  A
N392        N393   1.316       .  A
N392       Mn417   2.198   1_545  S
N393        C397   1.352       .  A
N394        N395   1.317       .  A
N394       Mn406   2.182       .  S
N395        C396   1.352       .  A
C396       C1366   1.467       .  S
C397       C1158   1.437       .  S
N398        N404   1.314       .  A
N398        N399   1.329       .  A
N398       Mn428   2.207   1_545  S
N399        C407   1.358       .  A
N400        N401   1.308       .  A
N400        N402   1.316       .  A
N400       Mn406   2.177       .  S
N401        C408   1.344       .  A
N402        N403   1.328       .  A
N402       Mn428   2.214   1_545  S
N403        C408   1.358       .  A
N404        N405   1.309       .  A
N404       Mn406   2.176       .  S
N405        C407   1.344       .  A
Mn406      Cl430   2.485   1_545  S
C407        C453   1.461       .  S
N409        N410   1.326       .  A
N409        N415   1.314       .  A
N409       Mn417   2.225       .  S
N410        C418   1.358       .  A
N411        N413   1.315       .  A
N411        N412   1.319       .  A
N411       Mn429   2.184       .  S
N412        C419   1.348       .  A
N413        N414   1.323       .  A
N413       Mn417   2.213       .  S
N414        C419   1.354       .  A
N415        N416   1.322       .  A
N415       Mn429   2.196       .  S
N416        C418   1.350       .  A
Mn417      Cl430   2.576       .  S
C418       C1001   1.485       .  S
C419       C1286   1.474       .  S
N420        N421   1.326       .  A
N420        N426   1.317       .  A
N420       Mn428   2.208       .  S
N421        C431   1.355       .  A
N422        N423   1.309       .  A
N422        N424   1.316       .  A
N422       Mn429   2.167       .  S
N423        C432   1.343       .  A
N424        N425   1.324       .  A
N424       Mn428   2.210       .  S
N425        C432   1.357       .  A
N426        N427   1.313       .  A
N426       Mn429   2.194       .  S
N427        C431   1.347       .  A
Mn428      Cl430   2.601       .  S
Mn429      Cl430   2.493       .  S
C432        C576   1.451       .  S
N433        N434   1.322       .  A
N433        N439   1.311       .  A
N433       Mn462   2.189       .  S
N434        C441   1.352       .  A
N435        N437   1.314       .  A
N435        N436   1.322       .  A
N435       Mn451   2.194       .  S
N436        C442   1.350       .  A
N437        N438   1.323       .  A
N437       Mn462   2.215       .  S
N438        C442   1.355       .  A
N439        N440   1.325       .  A
N439       Mn451   2.233       .  S
N440        C441   1.363       .  A
C441       C1177   1.508       .  S
C442        C729   1.481       .  S
N443        N449   1.319       .  A
N443        N444   1.326       .  A
N443       Mn473   2.209   1_554  S
N444        C452   1.355       .  A
N445        N446   1.309       .  A
N445        N447   1.318       .  A
N445       Mn451   2.175       .  S
N446        C453   1.344       .  A
N447        N448   1.329       .  A
N447       Mn473   2.228   1_554  S
N448        C453   1.358       .  A
N449        N450   1.315       .  A
N449       Mn451   2.209       .  S
N450        C452   1.349       .  A
Mn451      Cl475   2.496       .  S
N454        N455   1.321       .  A
N454        N460   1.314       .  A
N454       Mn462   2.185   1_556  S
N455        C463   1.350       .  A
N456        N458   1.313       .  A
N456        N457   1.320       .  A
N456       Mn474   2.183       .  S
N457        C464   1.349       .  A
N458        N459   1.319       .  A
N458       Mn462   2.199   1_556  S
N459        C464   1.355       .  A
N460        N461   1.320       .  A
N460       Mn474   2.209       .  S
N461        C463   1.353       .  A
Mn462      Cl475   2.582       .  S
C463        C662   1.472       .  S
C464       C1094   1.487       .  S
N465        N466   1.325       .  A
N465        N471   1.316       .  A
N465       Mn473   2.203       .  S
N466        C476   1.355       .  A
N467        N468   1.313       .  A
N467        N469   1.318       .  A
N467       Mn474   2.185       .  S
N468        C477   1.345       .  A
N469        N470   1.330       .  A
N469       Mn473   2.241       .  S
N470        C477   1.360       .  A
N471        N472   1.314       .  A
N471       Mn474   2.198       .  S
N472        C476   1.349       .  A
Mn473      Cl475   2.589   1_556  S
Mn474      Cl475   2.499   1_556  S
C476        C532   1.462       .  S
N478        N479   1.323       .  A
N478        N484   1.314       .  A
N478       Mn507   2.214       .  S
N479        C486   1.354       .  A
N480        N482   1.315       .  A
N480        N481   1.323       .  A
N480       Mn496   2.195       .  S
N481        C487   1.350       .  A
N482        N483   1.323       .  A
N482       Mn507   2.228       .  S
N483        C487   1.354       .  A
N484        N485   1.325       .  A
N484       Mn496   2.211       .  S
N485        C486   1.355       .  A
C486       C1481   1.490       .  S
C487        C841   1.486       .  S
N488        N494   1.316       .  A
N488        N489   1.327       .  A
N488       Mn518   2.206       .  S
N489        C497   1.356       .  A
N490        N491   1.314       .  A
N490        N492   1.317       .  A
N490       Mn496   2.190       .  S
N491        C498   1.348       .  A
N492        N493   1.324       .  A
N492       Mn518   2.209       .  S
N493        C498   1.355       .  A
N494        N495   1.311       .  A
N494       Mn496   2.189       .  S
N495        C497   1.346       .  A
Mn496      Cl520   2.509       .  S
N499        N500   1.310       .  A
N499        N505   1.312       .  A
N499       Mn507   2.199   1_655  S
N500        C508   1.348       .  A
N501        N503   1.312       .  A
N501        N502   1.320       .  A
N501       Mn519   2.188       .  S
N502        C509   1.352       .  A
N503        N504   1.317       .  A
N503       Mn507   2.197   1_655  S
N504        C509   1.356       .  A
N505        N506   1.331       .  A
N505       Mn519   2.206       .  S
N506        C508   1.358       .  A
Mn507      Cl520   2.558       .  S
C508        C617   1.486       .  S
C509       C1257   1.487       .  S
N510        N511   1.327       .  A
N510        N516   1.315       .  A
N510       Mn518   2.191   1_655  S
N511        C521   1.355       .  A
N512        N513   1.307       .  A
N512        N514   1.317       .  A
N512       Mn519   2.173       .  S
N513        C522   1.343       .  A
N514        N515   1.327       .  A
N514       Mn518   2.213   1_655  S
N515        C522   1.357       .  A
N516        N517   1.308       .  A
N516       Mn519   2.187       .  S
N517        C521   1.347       .  A
Mn518      Cl520   2.594       .  S
Mn519      Cl520   2.502   1_655  S
C521        C554   1.457       .  S
C522        C598   1.454       .  S
N523        N524   1.321       .  A
N523        N529   1.319       .  A
N523       Mn552   2.185   1_545  S
N524        C531   1.349       .  A
N525        N527   1.316       .  A
N525        N526   1.313       .  A
N525       Mn541   2.177       .  S
N526        C532   1.344       .  A
N527        N528   1.327       .  A
N527       Mn552   2.220   1_545  S
N528        C532   1.357       .  A
N529        N530   1.315       .  A
N529       Mn541   2.214       .  S
N530        C531   1.352       .  A
N533        N539   1.317       .  A
N533        N534   1.325       .  A
N533       Mn563   2.223   1_545  S
N534        C542   1.356       .  A
N535        N536   1.323       .  A
N535        N537   1.313       .  A
N535       Mn541   2.207       .  S
N536        C543   1.353       .  A
N537        N538   1.321       .  A
N537       Mn563   2.193   1_545  S
N538        C543   1.351       .  A
N539        N540   1.324       .  A
N539       Mn541   2.218       .  S
N540        C542   1.353       .  A
Mn541      Cl565   2.496   1_545  S
C542       C1081   1.490       .  S
C543       C1337   1.478       .  S
N544        N545   1.326       .  A
N544        N550   1.315       .  A
N544       Mn552   2.192       .  S
N545        C553   1.356       .  A
N546        N548   1.312       .  A
N546        N547   1.304       .  A
N546       Mn564   2.143       .  S
N547        C554   1.339       .  A
N548        N549   1.330       .  A
N548       Mn552   2.222       .  S
N549        C554   1.362       .  A
N550        N551   1.306       .  A
N550       Mn564   2.176       .  S
N551        C553   1.344       .  A
Mn552      Cl565   2.595       .  S
C553        C599   1.450       .  S
N555        N556   1.316       .  A
N555        N561   1.313       .  A
N555       Mn563   2.195       .  S
N556        C566   1.352       .  A
N557        N558   1.321       .  A
N557        N559   1.310       .  A
N557       Mn564   2.156       .  S
N558        C567   1.346       .  A
N559        N560   1.309       .  A
N559       Mn563   2.179       .  S
N560        C567   1.350       .  A
N561        N562   1.319       .  A
N561       Mn564   2.179       .  S
N562        C566   1.350       .  A
Mn563      Cl565   2.569       .  S
Mn564      Cl565   2.481       .  S
C566       C1273   1.473       .  S
C567        C937   1.439       .  S
N568        N569   1.322       .  A
N568        N574   1.317       .  A
N568       Mn597   2.192       .  S
N569        C576   1.352       .  A
N570        N572   1.317       .  A
N570        N571   1.313       .  A
N570       Mn586   2.206       .  S
N571        C577   1.350       .  A
N572        N573   1.327       .  A
N572       Mn597   2.205       .  S
N573        C577   1.354       .  A
N574        N575   1.311       .  A
N574       Mn586   2.191       .  S
N575        C576   1.348       .  A
N578        N584   1.315       .  A
N578        N579   1.325       .  A
N578       Mn608   2.224   1_554  S
N579        C587   1.354       .  A
N580        N581   1.327       .  A
N580        N582   1.314       .  A
N580       Mn586   2.231       .  S
N581        C588   1.358       .  A
N582        N583   1.323       .  A
N582       Mn608   2.201   1_554  S
N583        C588   1.352       .  A
N584        N585   1.326       .  A
N584       Mn586   2.215       .  S
N585        C587   1.354       .  A
Mn586      Cl610   2.495   1_554  S
C587        C697   1.494       .  S
C588       C1017   1.493       .  S
N589        N590   1.327       .  A
N589        N595   1.314       .  A
N589       Mn597   2.197   1_556  S
N590        C598   1.356       .  A
N591        N593   1.314       .  A
N591        N592   1.306       .  A
N591       Mn609   2.161       .  S
N592        C599   1.342       .  A
N593        N594   1.326       .  A
N593       Mn597   2.205   1_556  S
N594        C599   1.357       .  A
N595        N596   1.308       .  A
N595       Mn609   2.179       .  S
N596        C598   1.344       .  A
Mn597      Cl610   2.589   1_554  S
N600        N601   1.321       .  A
N600        N606   1.312       .  A
N600       Mn608   2.202       .  S
N601        C611   1.354       .  A
N602        N603   1.322       .  A
N602        N604   1.311       .  A
N602       Mn609   2.168       .  S
N603        C612   1.348       .  A
N604        N605   1.312       .  A
N604       Mn608   2.190       .  S
N605        C612   1.348       .  A
N606        N607   1.320       .  A
N606       Mn609   2.188       .  S
N607        C611   1.353       .  A
Mn608      Cl610   2.567       .  S
Mn609      Cl610   2.490       .  S
C611        C950   1.487       .  S
C612        C633   1.458       .  S
C613        C614   1.798       .  A
C613        C618   1.787       .  A
C613        H620   1.076       .  S
C614        C615   1.938       .  A
C615        C616   1.887       .  A
C615        C622   1.573       .  S
C616        C617   1.844       .  A
C616        H621   1.082       .  S
C617        C618   1.817       .  A
C618        C619   1.509       .  S
C619        F623   1.379       .  S
C619        F624   1.374   1_655  S
C619        F625   1.383       .  S
C622        F626   2.415       .  S
C622        F627   1.403       .  S
C622        F628   1.411       .  S
C629        C630   1.829       .  A
C629        C634   1.805       .  A
C629        H636   1.063       .  S
C630        C631   1.926       .  A
C631        C632   1.870       .  A
C631        C638   1.651       .  S
C632        C633   1.842       .  A
C632        H637   1.082       .  S
C633        C634   1.825       .  A
C634        C635   1.501       .  S
C635        F639   1.381       .  S
C635        F640   1.382       .  S
C635        F641   1.378       .  S
C638        F642   2.433       .  S
C638        F643   1.384       .  S
C638        F644   1.409       .  S
C645        C646   1.406       .  A
C645        C650   1.396       .  A
C645        H652   1.084       .  S
C646        C647   1.425       .  A
C647        C648   1.400       .  A
C647        C654   1.522       .  S
C648        C649   1.414       .  A
C648        H653   1.077       .  S
C649        C650   1.409       .  A
C650        C651   1.512       .  S
C651        F655   1.387       .  S
C651        F656   1.377       .  S
C651        F657   1.378       .  S
C654        F658   1.383       .  S
C654        F659   1.381   1_655  S
C654        F660   1.384       .  S
C661        C662   1.394       .  A
C661        C666   1.407       .  A
C661        H668   1.084       .  S
C662        C663   1.409       .  A
C663        C664   1.399       .  A
C663        C670   1.509       .  S
C664        C665   1.399       .  A
C664        H669   1.076       .  S
C665        C666   1.433       .  A
C666        C667   1.519       .  S
C667        F671   1.375       .  S
C667        F672   1.382       .  S
C667        F673   1.385       .  S
C670        F674   1.381       .  S
C670        F675   1.380   1_556  S
C670        F676   1.385       .  S
C677        C678   1.393       .  A
C677        C682   1.402       .  A
C677        H684   1.085       .  S
C678        C679   1.415       .  A
C679        C680   1.407       .  A
C679        C686   1.517       .  S
C680        C681   1.404       .  A
C680        H685   1.083       .  S
C681        C682   1.430       .  A
C682        C683   1.520       .  S
C683        F687   1.382       .  S
C683        F688   1.384       .  S
C683        F689   1.377       .  S
C686        F690   1.383       .  S
C686        F691   1.381       .  S
C686        F692   1.384       .  S
C693        C694   1.411       .  A
C693        C698   1.420       .  A
C693        H700   1.081       .  S
C694        C695   1.431       .  A
C695        C696   1.409       .  A
C695        C702   1.509       .  S
C696        C697   1.393       .  A
C696        H701   1.085       .  S
C697        C698   1.417       .  A
C698        C699   1.514       .  S
C699        F703   1.385       .  S
C699        F704   1.383       .  S
C699        F705   1.380   1_554  S
C702        F706   1.383       .  S
C702        F707   1.369       .  S
C702        F708   1.383       .  S
C709        C710   1.416       .  A
C709        C714   1.414       .  A
C709        H716   1.061       .  S
C710        C711   1.434       .  A
C711        C712   1.401       .  A
C711        C718   1.510       .  S
C712        C713   1.395       .  A
C712        H717   1.086       .  S
C713        C714   1.415       .  A
C714        C715   1.521       .  S
C715        F719   1.385       .  S
C715        F720   1.383       .  S
C715        F721   1.380       .  S
C718        F722   1.368       .  S
C718        F723   1.380       .  S
C718        F724   1.387       .  S
C725        C726   1.409       .  A
C725        C730   1.413       .  A
C725        H732   1.078       .  S
C726        C727   1.429       .  A
C727        C728   1.407       .  A
C727        C734   1.521       .  S
C728        C729   1.396       .  A
C728        H733   1.083       .  S
C729        C730   1.418       .  A
C730        C731   1.524       .  S
C731        F735   1.384       .  S
C731        F736   1.379       .  S
C731        F737   1.379       .  S
C734        F738   1.369       .  S
C734        F739   1.380       .  S
C734        F740   1.385       .  S
C741        C742   1.411       .  A
C741        C746   1.416   1_554  A
C741        H748   1.082       .  S
C742        C743   1.423       .  A
C743        C744   1.414   1_554  A
C743        C750   1.514       .  S
C744        C745   1.407       .  A
C744        H749   1.071       .  S
C745        C746   1.423       .  A
C746        C747   1.521       .  S
C747        F751   1.385   1_556  S
C747        F752   1.380       .  S
C747        F753   1.377       .  S
C750        F754   1.382       .  S
C750        F755   1.373       .  S
C750        F756   1.384   1_554  S
C757        C758   1.407       .  A
C757        C762   1.407       .  A
C757        H764   1.081       .  S
C758        C759   1.423       .  A
C759        C760   1.409       .  A
C759        C766   1.515       .  S
C760        C761   1.402       .  A
C760        H765   1.085       .  S
C761        C762   1.409       .  A
C762        C763   1.517       .  S
C763        F767   1.385       .  S
C763        F768   1.383       .  S
C763        F769   1.383       .  S
C766        F770   1.375       .  S
C766        F771   1.384       .  S
C766        F772   1.380       .  S
C773        C774   1.399       .  A
C773        C778   1.416       .  A
C773        H780   1.084       .  S
C774        C775   1.411       .  A
C775        C776   1.403       .  A
C775        C782   1.497       .  S
C776        C777   1.394       .  A
C776        H781   1.081       .  S
C777        C778   1.434       .  A
C778        C779   1.512       .  S
C779        F783   1.384       .  S
C779        F784   1.374       .  S
C779        F785   1.383       .  S
C782        F786   1.383       .  S
C782        F787   1.378       .  S
C782        F788   1.375   1_554  S
C789        C790   1.410       .  A
C789        C794   1.407       .  A
C789        H796   1.077       .  S
C790        C791   1.427       .  A
C791        C792   1.411       .  A
C791        C798   1.519       .  S
C792        C793   1.405       .  A
C792        H797   1.085       .  S
C793        C794   1.414       .  A
C794        C795   1.520       .  S
C795        F799   1.385       .  S
C795        F800   1.384       .  S
C795        F801   1.382       .  S
C798        F802   1.383       .  S
C798        F803   1.377       .  S
C798        F804   1.384       .  S
C805        C806   1.401       .  A
C805        C810   1.417       .  A
C805        H812   1.084       .  S
C806        C807   1.409       .  A
C807        C808   1.402       .  A
C807        C814   1.513       .  S
C808        C809   1.410       .  A
C808        H813   1.068       .  S
C809        C810   1.440       .  A
C810        C811   1.515       .  S
C811        F815   1.384       .  S
C811        F816   1.381       .  S
C811        F817   1.374       .  S
C814        F818   1.366   1_554  S
C814        F819   1.384       .  S
C814        F820   1.377       .  S
C821        C822   1.413       .  A
C821        C826   1.413   1_455  A
C821        H828   1.074       .  S
C822        C823   1.427       .  A
C823        C824   1.416   1_455  A
C823        C830   1.513       .  S
C824        C825   1.415       .  A
C824        H829   1.075       .  S
C825        C826   1.432       .  A
C826        C827   1.524       .  S
C827        F831   1.385       .  S
C827        F832   1.368       .  S
C827        F833   1.379       .  S
C830        F834   1.379       .  S
C830        F835   1.374       .  S
C830        F836   1.385       .  S
C837        C838   1.410       .  A
C837        C842   1.405       .  A
C837        H844   1.076       .  S
C838        C839   1.427       .  A
C839        C840   1.417       .  A
C839        C846   1.520       .  S
C840        C841   1.408       .  A
C840        H845   1.084       .  S
C841        C842   1.409       .  A
C842        C843   1.518       .  S
C843        F847   1.385       .  S
C843        F848   1.383       .  S
C843        F849   1.383       .  S
C846        F850   1.382       .  S
C846        F851   1.382       .  S
C846        F852   1.377       .  S
C853        C854   1.395       .  A
C853        C858   1.403       .  A
C853        H860   1.085       .  S
C854        C855   1.421       .  A
C855        C856   1.407       .  A
C855        C862   1.522       .  S
C856        C857   1.399       .  A
C856        H861   1.077       .  S
C857        C858   1.424       .  A
C858        C859   1.511       .  S
C859        F863   1.382       .  S
C859        F864   1.384       .  S
C859        F865   1.376       .  S
C862        F866   1.382       .  S
C862        F867   1.379       .  S
C862        F868   1.384       .  S
C869        C870   1.408       .  A
C869        C874   1.408       .  A
C869        H876   1.069       .  S
C870        C871   1.437       .  A
C871        C872   1.413       .  A
C871        C878   1.509       .  S
C872        C873   1.396       .  A
C872        H877   1.085       .  S
C873        C874   1.413       .  A
C874        C875   1.514       .  S
C875        F879   1.370       .  S
C875        F880   1.386       .  S
C875        F881   1.379       .  S
C878        F882   1.383       .  S
C878        F883   1.375       .  S
C878        F884   1.382       .  S
C885        C886   1.410       .  A
C885        C890   1.414       .  A
C885        H892   1.082       .  S
C886        C887   1.422       .  A
C887        C888   1.405       .  A
C887        C894   1.510       .  S
C888        C889   1.393       .  A
C888        H893   1.083       .  S
C889        C890   1.418       .  A
C890        C891   1.524       .  S
C891        F895   1.384       .  S
C891        F896   1.379   1_556  S
C891        F897   1.382       .  S
C894        F898   1.375       .  S
C894        F899   1.380       .  S
C894        F900   1.385       .  S
C901        C902   1.416       .  A
C901        C906   1.433   1_554  A
C901        H908   1.082       .  S
C902        C903   1.436       .  A
C903        C904   1.408   1_554  A
C903        C910   1.510       .  S
C904        C905   1.397       .  A
C904        H909   1.086       .  S
C905        C906   1.426       .  A
C906        C907   1.513       .  S
C907        F911   1.384       .  S
C907        F912   1.375       .  S
C907        F913   1.380       .  S
C910        F914   1.385       .  S
C910        F915   1.358       .  S
C910        F916   1.383       .  S
C917        C918   1.416       .  A
C917        C922   1.438       .  A
C917        H924   1.080       .  S
C918        C919   1.399       .  A
C919        C920   1.393   1_455  A
C919        C926   1.507       .  S
C920        C921   1.393       .  A
C920        H925   1.039       .  S
C921        C922   1.453   1_655  A
C922        C923   1.519   1_455  S
C923        F927   1.385   1_655  S
C923        F928   1.379       .  S
C923        F929   1.368       .  S
C926        F930   1.364       .  S
C926        F931   1.378       .  S
C926        F932   1.381       .  S
C933        C934   1.856       .  A
C933        C938   1.840       .  A
C933        H940   1.083       .  S
C934        C935   1.860       .  A
C935        C936   1.813       .  A
C935        C942   1.498       .  S
C936        C937   1.823       .  A
C936        H941   1.079       .  S
C937        C938   1.826       .  A
C938        C939   1.493       .  S
C939        F943   1.382       .  S
C939        F944   1.382       .  S
C939        F945   1.382       .  S
C942        F946   1.365       .  S
C942        F947   1.377       .  S
C942        F948   1.384       .  S
C949        C950   1.400       .  A
C949        C954   1.420       .  A
C949        H956   1.081       .  S
C950        C951   1.407       .  A
C951        C952   1.403       .  A
C951        C958   1.521       .  S
C952        C953   1.409       .  A
C952        H957   1.064       .  S
C953        C954   1.456       .  A
C954        C955   1.606       .  S
C955        F959   1.418       .  S
C955        F960   1.410       .  S
C955        F961   2.452       .  S
C958        F962   1.382       .  S
C958        F963   1.384       .  S
C958        F964   1.384       .  S
C965        C966   1.403       .  A
C965        C970   1.401       .  A
C965        H972   1.080       .  S
C966        C967   1.415       .  A
C967        C968   1.406       .  A
C967        C974   1.517       .  S
C968        C969   1.404       .  A
C968        H973   1.082       .  S
C969        C970   1.408       .  A
C970        C971   1.517       .  S
C971        F975   1.384       .  S
C971        F976   1.382       .  S
C971        F977   1.384       .  S
C974        F978   1.375       .  S
C974        F979   1.375       .  S
C974        F980   1.383       .  S
C981        C982   1.400       .  A
C981        C986   1.398       .  A
C981        H988   1.079       .  S
C982        C983   1.423       .  A
C983        C984   1.405       .  A
C983        C990   1.524       .  S
C984        C985   1.396       .  A
C984        H989   1.084       .  S
C985        C986   1.411       .  A
C986        C987   1.517       .  S
C987        F991   1.384       .  S
C987        F992   1.380       .  S
C987        F993   1.383       .  S
C990        F994   1.379       .  S
C990        F995   1.377       .  S
C990        F996   1.385       .  S
C997        C998   1.411       .  A
C997       C1002   1.414       .  A
C997       H1004   1.083       .  S
C998        C999   1.426       .  A
C999       C1000   1.409       .  A
C999       C1006   1.515       .  S
C1000      C1001   1.400       .  A
C1000      H1005   1.085       .  S
C1001      C1002   1.413       .  A
C1002      C1003   1.515       .  S
C1003      F1007   1.384       .  S
C1003      F1008   1.383       .  S
C1003      F1009   1.383       .  S
C1006      F1010   1.377       .  S
C1006      F1011   1.379       .  S
C1006      F1012   1.383       .  S
C1013      C1014   1.414       .  A
C1013      C1018   1.413       .  A
C1013      H1020   1.081       .  S
C1014      C1015   1.433       .  A
C1015      C1016   1.414       .  A
C1015      C1022   1.515       .  S
C1016      C1017   1.402       .  A
C1016      H1021   1.085       .  S
C1017      C1018   1.411       .  A
C1018      C1019   1.516       .  S
C1019      F1023   1.385       .  S
C1019      F1024   1.383       .  S
C1019      F1025   1.383       .  S
C1022      F1026   1.384       .  S
C1022      F1027   1.371       .  S
C1022      F1028   1.379   1_554  S
C1029      C1030   1.397       .  A
C1029      C1034   1.408       .  A
C1029      H1036   1.085       .  S
C1030      C1031   1.416       .  A
C1031      C1032   1.418       .  A
C1031      C1038   1.514       .  S
C1032      C1033   1.408       .  A
C1032      H1037   1.083       .  S
C1033      C1034   1.424       .  A
C1034      C1035   1.509       .  S
C1035      F1039   1.367       .  S
C1035      F1040   1.381       .  S
C1035      F1041   1.370       .  S
C1038      F1042   1.383       .  S
C1038      F1043   1.383       .  S
C1038      F1044   1.384       .  S
C1045      C1046   1.406       .  A
C1045      C1050   1.409       .  A
C1045      H1052   1.069       .  S
C1046      C1047   1.430       .  A
C1047      C1048   1.414       .  A
C1047      C1054   1.519       .  S
C1048      C1049   1.402       .  A
C1048      H1053   1.085       .  S
C1049      C1050   1.418       .  A
C1050      C1051   1.522       .  S
C1051      F1055   1.384       .  S
C1051      F1056   1.383       .  S
C1051      F1057   1.381       .  S
C1054      F1058   1.384       .  S
C1054      F1059   1.377       .  S
C1054      F1060   1.382       .  S
C1061      C1062   1.401       .  A
C1061      C1066   1.420   1_554  A
C1061      H1068   1.080       .  S
C1062      C1063   1.421       .  A
C1063      C1064   1.399   1_554  A
C1063      C1070   1.509       .  S
C1064      C1065   1.397       .  A
C1064      H1069   1.075       .  S
C1065      C1066   1.435       .  A
C1066      C1067   1.510       .  S
C1067      F1071   1.384       .  S
C1067      F1072   1.381       .  S
C1067      F1073   1.373       .  S
C1070      F1074   1.380       .  S
C1070      F1075   1.372       .  S
C1070      F1076   1.382   1_554  S
C1077      C1078   1.411       .  A
C1077      C1082   1.421       .  A
C1077      H1084   1.083       .  S
C1078      C1079   1.433       .  A
C1079      C1080   1.404       .  A
C1079      C1086   1.511       .  S
C1080      C1081   1.392       .  A
C1080      H1085   1.086       .  S
C1081      C1082   1.420       .  A
C1082      C1083   1.516       .  S
C1083      F1087   1.384       .  S
C1083      F1088   1.382       .  S
C1083      F1089   1.381   1_545  S
C1086      F1090   1.365       .  S
C1086      F1091   1.381       .  S
C1086      F1092   1.385       .  S
C1093      C1094   1.402       .  A
C1093      C1098   1.394       .  A
C1093      H1100   1.078       .  S
C1094      C1095   1.423       .  A
C1095      C1096   1.415       .  A
C1095      C1102   1.519       .  S
C1096      C1097   1.416       .  A
C1096      H1101   1.069       .  S
C1097      C1098   1.407       .  A
C1098      C1099   1.512       .  S
C1099      F1103   1.387       .  S
C1099      F1104   1.375       .  S
C1099      F1105   1.382       .  S
C1102      F1106   1.383       .  S
C1102      F1107   1.383       .  S
C1102      F1108   1.385       .  S
C1109      C1110   1.396       .  A
C1109      C1114   1.411       .  A
C1109      H1116   1.084       .  S
C1110      C1111   1.400       .  A
C1111      C1112   1.393       .  A
C1111      C1118   1.519       .  S
C1112      C1113   1.404       .  A
C1112      H1117   1.067       .  S
C1113      C1114   1.432       .  A
C1114      C1115   1.515       .  S
C1115      F1119   1.384       .  S
C1115      F1120   1.383       .  S
C1115      F1121   1.376       .  S
C1118      F1122   1.380       .  S
C1118      F1123   1.383       .  S
C1118      F1124   1.380       .  S
C1125      C1126   1.402       .  A
C1125      C1130   1.397       .  A
C1125      H1132   1.077       .  S
C1126      C1127   1.411       .  A
C1127      C1128   1.420       .  A
C1127      C1134   1.532       .  S
C1128      C1129   1.413       .  A
C1128      H1133   1.083       .  S
C1129      C1130   1.408       .  A
C1130      C1131   1.519       .  S
C1131      F1135   1.384       .  S
C1131      F1136   1.383       .  S
C1131      F1137   1.383       .  S
C1134      F1138   1.368       .  S
C1134      F1139   1.354       .  S
C1134      F1140   1.379       .  S
C1141      C1142   1.404       .  A
C1141      C1146   1.411   1_545  A
C1141      H1148   1.085       .  S
C1142      C1143   1.429       .  A
C1143      C1144   1.424   1_545  A
C1143      C1150   1.518       .  S
C1144      C1145   1.417       .  A
C1144      H1149   1.082       .  S
C1145      C1146   1.435       .  A
C1146      C1147   1.519       .  S
C1147      F1151   1.381       .  S
C1147      F1152   1.384       .  S
C1147      F1153   1.367       .  S
C1150      F1154   1.376       .  S
C1150      F1155   1.383       .  S
C1150      F1156   1.382       .  S
C1157      C1158   1.824       .  A
C1157      C1162   1.831       .  A
C1157      H1164   1.081       .  S
C1158      C1159   1.834       .  A
C1159      C1160   1.829       .  A
C1159      C1166   1.495       .  S
C1160      C1161   1.855       .  A
C1160      H1165   1.074       .  S
C1161      C1162   1.860       .  A
C1162      C1163   1.486       .  S
C1163      F1167   1.381       .  S
C1163      F1168   1.364       .  S
C1163      F1169   1.382       .  S
C1166      F1170   1.382       .  S
C1166      F1171   1.381       .  S
C1166      F1172   1.382       .  S
C1173      C1174   1.415       .  A
C1173      C1178   1.417       .  A
C1173      H1180   1.078       .  S
C1174      C1175   1.461       .  A
C1175      C1176   1.415       .  A
C1175      C1182   1.618       .  S
C1176      C1177   1.398       .  A
C1176      H1181   1.082       .  S
C1177      C1178   1.423       .  A
C1178      C1179   1.521       .  S
C1179      F1183   1.385       .  S
C1179      F1184   1.378       .  S
C1179      F1185   1.383       .  S
C1182      F1186   2.439       .  S
C1182      F1187   1.414       .  S
C1182      F1188   1.418       .  S
C1189      C1190   1.390       .  A
C1189      C1194   1.400       .  A
C1189      H1196   1.086       .  S
C1190      C1191   1.401       .  A
C1191      C1192   1.405       .  A
C1191      C1198   1.514       .  S
C1192      C1193   1.411       .  A
C1192      H1197   1.070       .  S
C1193      C1194   1.431       .  A
C1194      C1195   1.504       .  S
C1195      F1199   1.384       .  S
C1195      F1200   1.376       .  S
C1195      F1201   1.376       .  S
C1198      F1202   1.384       .  S
C1198      F1203   1.383       .  S
C1198      F1204   1.384       .  S
C1205      C1206   1.412       .  A
C1205      C1210   1.416       .  A
C1205      H1212   1.082       .  S
C1206      C1207   1.410       .  A
C1207      C1208   1.394       .  A
C1207      C1214   1.483       .  S
C1208      C1209   1.387       .  A
C1208      H1213   1.087       .  S
C1209      C1210   1.411       .  A
C1210      C1211   1.512       .  S
C1211      F1215   1.384       .  S
C1211      F1216   1.383       .  S
C1211      F1217   1.383       .  S
C1214      F1218   1.380       .  S
C1214      F1219   1.377       .  S
C1214      F1220   1.365       .  S
C1221      C1222   1.423       .  A
C1221      C1226   1.405   1_545  A
C1221      H1228   1.075       .  S
C1222      C1223   1.452       .  A
C1223      C1224   1.437   1_545  A
C1223      C1230   1.502       .  S
C1224      C1225   1.414       .  A
C1224      H1229   1.080       .  S
C1225      C1226   1.398       .  A
C1226      C1227   1.529       .  S
C1227      F1231   1.383   1_565  S
C1227      F1232   1.377       .  S
C1227      F1233   1.377       .  S
C1230      F1234   1.378       .  S
C1230      F1235   1.367       .  S
C1230      F1236   1.385       .  S
C1237      C1238   1.409       .  A
C1237      C1242   1.424   1_556  A
C1237      H1244   1.082       .  S
C1238      C1239   1.453       .  A
C1239      C1240   1.433   1_556  A
C1239      C1246   1.521       .  S
C1240      C1241   1.407       .  A
C1240      H1245   1.083       .  S
C1241      C1242   1.432       .  A
C1242      C1243   1.509       .  S
C1243      F1247   1.385       .  S
C1243      F1248   1.380       .  S
C1243      F1249   1.376       .  S
C1246      F1250   1.378       .  S
C1246      F1251   1.366       .  S
C1246      F1252   1.385       .  S
C1253      C1254   1.411       .  A
C1253      C1258   1.413       .  A
C1253      H1260   1.071       .  S
C1254      C1255   1.417       .  A
C1255      C1256   1.395       .  A
C1255      C1262   1.504       .  S
C1256      C1257   1.400       .  A
C1256      H1261   1.084       .  S
C1257      C1258   1.420       .  A
C1258      C1259   1.519       .  S
C1259      F1263   1.384       .  S
C1259      F1264   1.383       .  S
C1259      F1265   1.383       .  S
C1262      F1266   1.375       .  S
C1262      F1267   1.371       .  S
C1262      F1268   1.386       .  S
C1269      C1270   1.406       .  A
C1269      C1274   1.396       .  A
C1269      H1276   1.071       .  S
C1270      C1271   1.415       .  A
C1271      C1272   1.411       .  A
C1271      C1278   1.515       .  S
C1272      C1273   1.407       .  A
C1272      H1277   1.083       .  S
C1273      C1274   1.410       .  A
C1274      C1275   1.521       .  S
C1275      F1279   1.385       .  S
C1275      F1280   1.382       .  S
C1275      F1281   1.384       .  S
C1278      F1282   1.381       .  S
C1278      F1283   1.378       .  S
C1278      F1284   1.384       .  S
C1285      C1286   1.393       .  A
C1285      C1290   1.403       .  A
C1285      H1292   1.085       .  S
C1286      C1287   1.416       .  A
C1287      C1288   1.408       .  A
C1287      C1294   1.518       .  S
C1288      C1289   1.405       .  A
C1288      H1293   1.080       .  S
C1289      C1290   1.427       .  A
C1290      C1291   1.515       .  S
C1291      F1295   1.382       .  S
C1291      F1296   1.371       .  S
C1291      F1297   1.384       .  S
C1294      F1298   1.383       .  S
C1294      F1299   1.381       .  S
C1294      F1300   1.384       .  S
C1301      C1302   1.403       .  A
C1301      C1306   1.402       .  A
C1301      H1308   1.081       .  S
C1302      C1303   1.427       .  A
C1303      C1304   1.400       .  A
C1303      C1310   1.517       .  S
C1304      C1305   1.391       .  A
C1304      H1309   1.085       .  S
C1305      C1306   1.410       .  A
C1306      C1307   1.517       .  S
C1307      F1311   1.382       .  S
C1307      F1312   1.382       .  S
C1307      F1313   1.381       .  S
C1310      F1314   1.382       .  S
C1310      F1315   1.375       .  S
C1310      F1316   1.384       .  S
C1317      C1318   1.408       .  A
C1317      C1322   1.415       .  A
C1317      H1324   1.079       .  S
C1318      C1319   1.438       .  A
C1319      C1320   1.411       .  A
C1319      C1326   1.517       .  S
C1320      C1321   1.397       .  A
C1320      H1325   1.085       .  S
C1321      C1322   1.422       .  A
C1322      C1323   1.518       .  S
C1323      F1327   1.385       .  S
C1323      F1328   1.383       .  S
C1323      F1329   1.383       .  S
C1326      F1330   1.384       .  S
C1326      F1331   1.371       .  S
C1326      F1332   1.383       .  S
C1333      C1334   1.394       .  A
C1333      C1338   1.398       .  A
C1333      H1340   1.083       .  S
C1334      C1335   1.423       .  A
C1335      C1336   1.410       .  A
C1335      C1342   1.515       .  S
C1336      C1337   1.398       .  A
C1336      H1341   1.083       .  S
C1337      C1338   1.414       .  A
C1338      C1339   1.503       .  S
C1339      F1343   1.383   1_545  S
C1339      F1344   1.375   1_545  S
C1339      F1345   1.383       .  S
C1342      F1346   1.379       .  S
C1342      F1347   1.372       .  S
C1342      F1348   1.385       .  S
C1349      C1350   1.407       .  A
C1349      C1354   1.414       .  A
C1349      H1356   1.083       .  S
C1350      C1351   1.409       .  A
C1351      C1352   1.401       .  A
C1351      C1358   1.518       .  S
C1352      C1353   1.403       .  A
C1352      H1357   1.080       .  S
C1353      C1354   1.416       .  A
C1354      C1355   1.524       .  S
C1355      F1359   1.384       .  S
C1355      F1360   1.357       .  S
C1355      F1361   1.362       .  S
C1358      F1362   1.383       .  S
C1358      F1363   1.383       .  S
C1358      F1364   1.385       .  S
C1365      C1366   1.398       .  A
C1365      C1370   1.390       .  A
C1365      H1372   1.086       .  S
C1366      C1367   1.417       .  A
C1367      C1368   1.411       .  A
C1367      C1374   1.514       .  S
C1368      C1369   1.409       .  A
C1368      H1373   1.077       .  S
C1369      C1370   1.416       .  A
C1370      C1371   1.520       .  S
C1371      F1375   1.385       .  S
C1371      F1376   1.366       .  S
C1371      F1377   1.384       .  S
C1374      F1378   1.382       .  S
C1374      F1379   1.383       .  S
C1374      F1380   1.385       .  S
C1381      C1382   1.422       .  A
C1381      C1386   1.437       .  A
C1381      H1388   1.079       .  S
C1382      C1383   1.416       .  A
C1383      C1384   1.400   1_565  A
C1383      C1390   1.505       .  S
C1384      C1385   1.392       .  A
C1384      H1389   1.071       .  S
C1385      C1386   1.427   1_545  A
C1386      C1387   1.511   1_565  S
C1387      F1391   1.383   1_545  S
C1387      F1392   1.383   1_545  S
C1387      F1393   1.378       .  S
C1390      F1394   1.385       .  S
C1390      F1395   1.366       .  S
C1390      F1396   1.379       .  S
C1397      C1398   1.419       .  A
C1397      C1402   1.413       .  A
C1397      H1404   1.076       .  S
C1398      C1399   1.438       .  A
C1399      C1400   1.399       .  A
C1399      C1406   1.507       .  S
C1400      C1401   1.391       .  A
C1400      H1405   1.086       .  S
C1401      C1402   1.409       .  A
C1402      C1403   1.517       .  S
C1403      F1407   1.382       .  S
C1403      F1408   1.382       .  S
C1403      F1409   1.384       .  S
C1406      F1410   1.347       .  S
C1406      F1411   1.382       .  S
C1406      F1412   1.386       .  S
C1413      C1414   1.415       .  A
C1413      C1418   1.409       .  A
C1413      H1420   1.083       .  S
C1414      C1415   1.433       .  A
C1415      C1416   1.387       .  A
C1415      C1422   1.509       .  S
C1416      C1417   1.388       .  A
C1416      H1421   1.087       .  S
C1417      C1418   1.406       .  A
C1418      C1419   1.514       .  S
C1419      F1423   1.384       .  S
C1419      F1424   1.383       .  S
C1419      F1425   1.383       .  S
C1422      F1426   1.386       .  S
C1422      F1427   1.349       .  S
C1422      F1428   1.379       .  S
C1429      C1430   1.382       .  A
C1429      C1434   1.394       .  A
C1429      H1436   1.087       .  S
C1430      C1431   1.416       .  A
C1431      C1432   1.427       .  A
C1431      C1438   1.511       .  S
C1432      C1433   1.417       .  A
C1432      H1437   1.081       .  S
C1433      C1434   1.419       .  A
C1434      C1435   1.481       .  S
C1435      F1439   1.386       .  S
C1435      F1440   1.377       .  S
C1435      F1441   1.372       .  S
C1438      F1442   1.382       .  S
C1438      F1443   1.384       .  S
C1438      F1444   1.384       .  S
C1445      C1446   1.397       .  A
C1445      C1450   1.406       .  A
C1445      H1452   1.085       .  S
C1446      C1447   1.416       .  A
C1447      C1448   1.405       .  A
C1447      C1454   1.519       .  S
C1448      C1449   1.402       .  A
C1448      H1453   1.074       .  S
C1449      C1450   1.424       .  A
C1450      C1451   1.516       .  S
C1451      F1455   1.384       .  S
C1451      F1456   1.381       .  S
C1451      F1457   1.380       .  S
C1454      F1458   1.383       .  S
C1454      F1459   1.381       .  S
C1454      F1460   1.385       .  S
C1461      C1462   1.420       .  A
C1461      C1466   1.437   1_655  A
C1461      H1468   1.075       .  S
C1462      C1463   1.415       .  A
C1463      C1464   1.396   1_655  A
C1463      C1470   1.513       .  S
C1464      C1465   1.397       .  A
C1464      H1469   1.069       .  S
C1465      C1466   1.425       .  A
C1466      C1467   1.511       .  S
C1467      F1471   1.383       .  S
C1467      F1472   1.383       .  S
C1467      F1473   1.382       .  S
C1470      F1474   1.375       .  S
C1470      F1475   1.371       .  S
C1470      F1476   1.378   1_655  S
C1477      C1478   1.404       .  A
C1477      C1482   1.406       .  A
C1477      H1484   1.077       .  S
C1478      C1479   1.428       .  A
C1479      C1480   1.414       .  A
C1479      C1486   1.520       .  S
C1480      C1481   1.401       .  A
C1480      H1485   1.084       .  S
C1481      C1482   1.414       .  A
C1482      C1483   1.514       .  S
C1483      F1487   1.383       .  S
C1483      F1488   1.383       .  S
C1483      F1489   1.370       .  S
C1486      F1490   1.383       .  S
C1486      F1491   1.381       .  S
C1486      F1492   1.383       .  S
C1493      C1494   1.411       .  A
C1493      C1498   1.410       .  A
C1493      H1500   1.083       .  S
C1494      C1495   1.432       .  A
C1495      C1496   1.405       .  A
C1495      C1502   1.518       .  S
C1496      C1497   1.397       .  A
C1496      H1501   1.086       .  S
C1497      C1498   1.410       .  A
C1498      C1499   1.516       .  S
C1499      F1503   1.384       .  S
C1499      F1504   1.383       .  S
C1499      F1505   1.383       .  S
C1502      F1506   1.383       .  S
C1502      F1507   1.369       .  S
C1502      F1508   1.384       .  S
C1509      C1510   1.401       .  A
C1509      C1514   1.408       .  A
C1509      H1516   1.082       .  S
C1510      C1511   1.412       .  A
C1511      C1512   1.412       .  A
C1511      C1518   1.515       .  S
C1512      C1513   1.409       .  A
C1512      H1517   1.083       .  S
C1513      C1514   1.419       .  A
C1514      C1515   1.509       .  S
C1515      F1519   1.378       .  S
C1515      F1520   1.383       .  S
C1515      F1521   1.368       .  S
C1518      F1522   1.383       .  S
C1518      F1523   1.383       .  S
C1518      F1524   1.385       .  S
C1525      C1526   1.411       .  A
C1525      C1530   1.411       .  A
C1525      H1532   1.083       .  S
C1526      C1527   1.421       .  A
C1527      C1528   1.406       .  A
C1527      C1534   1.508       .  S
C1528      C1529   1.397       .  A
C1528      H1533   1.084       .  S
C1529      C1530   1.411       .  A
C1530      C1531   1.515       .  S
C1531      F1535   1.384       .  S
C1531      F1536   1.383       .  S
C1531      F1537   1.383       .  S
C1534      F1538   1.372       .  S
C1534      F1539   1.374       .  S
C1534      F1540   1.382       .  S
C1541      C1542   1.385       .  A
C1541      C1546   1.385   1_565  A
C1541      H1548   1.059       .  S
C1542      C1543   1.430       .  A
C1543      C1544   1.444   1_565  A
C1543      C1550   1.515       .  S
C1544      C1545   1.422       .  A
C1544      H1549   1.079       .  S
C1545      C1546   1.424       .  A
C1546      C1547   1.509       .  S
C1547      F1551   1.381   1_545  S
C1547      F1552   1.340       .  S
C1547      F1553   1.385   1_545  S
C1550      F1554   1.373       .  S
C1550      F1555   1.381       .  S
C1550      F1556   1.384       .  S
C1557      C1558   1.401       .  A
C1557      C1562   1.430   1_455  A
C1557      H1564   1.082       .  S
C1558      C1559   1.419       .  A
C1559      C1560   1.409   1_455  A
C1559      C1566   1.504       .  S
C1560      C1561   1.407       .  A
C1560      H1565   1.081       .  S
C1561      C1562   1.456       .  A
C1562      C1563   1.518       .  S
C1563      F1567   1.382       .  S
C1563      F1568   1.361       .  S
C1563      F1569   1.385   1_655  S
C1566      F1570   1.376       .  S
C1566      F1571   1.356       .  S
C1566      F1572   1.383       .  S
