geometry optimzed in LAMMPS
_audit_creation_date              2020-12-01 
_audit_creation_method            'lammps2cif' 
_symmetry_space_group_name_H-M    'P1' 
_symmetry_Int_Tables_number       1 
_symmetry_cell_setting            triclinic 
loop_ 
_symmetry_equiv_pos_as_xyz 
  x,y,z 
_cell_length_a                    46.51517286 
_cell_length_b                    48.51551453285281 
_cell_length_c                    38.11316065540236 
_cell_angle_alpha                 90.62410463192602 
_cell_angle_beta                  89.09949748493773 
_cell_angle_gamma                 89.47755023999534 
loop_ 
_atom_site_label 
_atom_site_type_symbol 
_atom_site_fract_x 
_atom_site_fract_y 
_atom_site_fract_z 
_atom_site_charge 
C1          C  0.37579686  0.49875176  0.88260907     0.03500
C2          C  0.34817521  0.48797772  0.87776182    -0.12600
C3          C  0.32599108  0.49367547  0.90228361     0.01000
C4          C  0.33168435  0.01115104  0.92957957    -0.11100
C5          C  0.35987569  0.01910894  0.93670127     0.03500
C6          C  0.38156236  0.01333614  0.91170920    -0.10600
H7          H  0.34439074  0.47425207  0.85574363     0.09100
H8          H  0.31483504  0.01598457  0.94853642     0.06700
H9          H  0.40356088  0.01880125  0.91737754     0.06500
C10         C  0.17004991  0.42354328  0.88021788     0.03500
C11         C  0.16643263  0.40459089  0.90736820    -0.12600
C12         C  0.18864498  0.39937228  0.93072499     0.01000
C13         C  0.21545252  0.41155060  0.92471868    -0.11100
C14         C  0.21934856  0.43159434  0.89860111     0.03500
C15         C  0.19628269  0.43738564  0.87626542    -0.10600
H16         H  0.14560733  0.39527265  0.91178584     0.09100
H17         H  0.23262349  0.40721019  0.94265349     0.06700
H18         H  0.19782327  0.45374450  0.85730245     0.06500
In19       In  0.02227438  0.45481692  0.76120877     1.36900
C20         C  0.06921213  0.44613199  0.79892267     0.78000
O21         O  0.00767064  0.41109392  0.75724530    -0.60400
O22         O  0.02811866  0.42866323  0.71276703    -0.51400
C23         C  0.47465397  0.46773116  0.79749127     0.70700
O24         O  0.49528107  0.48409627  0.79370003    -0.46200
C25         C  0.02470440  0.49912390  0.72087383     0.75400
O26         O  0.04451776  0.44909825  0.81245997    -0.58100
O27         O  0.00924469  0.47864055  0.71361683    -0.48200
O28         O  0.06977544  0.44722275  0.76596752    -0.54500
C29         C  0.01610582  0.40783679  0.72587832     0.85500
O30         O  0.47852918  0.44457953  0.78289145    -0.56400
O31         O  0.03929034  0.49641096  0.74822341    -0.59700
C32         C  0.49608655  0.31022903  0.64194250     0.03500
C33         C  0.49982331  0.28334301  0.65466702    -0.12600
C34         C  0.49467530  0.26053940  0.63280248     0.01000
C35         C  0.48590984  0.26472035  0.59827988    -0.11100
C36         C  0.48266164  0.29133612  0.58496987     0.03500
C37         C  0.48726207  0.31406198  0.60717790    -0.10600
H38         H  0.50747937  0.28019160  0.68104409     0.09100
H39         H  0.48348541  0.24703662  0.58096154     0.06700
H40         H  0.48439658  0.33473718  0.59727403     0.06500
C41         C  0.03173850  0.09903194  0.63687798     0.03500
C42         C  0.02516291  0.12559755  0.65008842    -0.12600
C43         C  0.02815378  0.14860272  0.62840094     0.01000
C44         C  0.03715895  0.14495851  0.59336585    -0.11100
C45         C  0.04309635  0.11855015  0.57964210     0.03500
C46         C  0.04074156  0.09576682  0.60174397    -0.10600
H47         H  0.01723784  0.12833132  0.67678940     0.09100
H48         H  0.03780054  0.16265544  0.57625862     0.06700
H49         H  0.04548417  0.07530712  0.59136798     0.06500
C50         C  0.48916467  0.30371152  0.37613955     0.03500
C51         C  0.48128262  0.30829564  0.41151544    -0.12600
C52         C  0.47803986  0.28624104  0.43459409     0.01000
C53         C  0.48150722  0.25923092  0.42164391    -0.11100
C54         C  0.48895254  0.25416501  0.38629112     0.03500
C55         C  0.49313717  0.27649548  0.36373043    -0.10600
H56         H  0.47850900  0.32917793  0.42146912     0.09100
H57         H  0.48040720  0.24212106  0.43964843     0.06700
H58         H  0.50041763  0.27265329  0.33697268     0.06500
C59         C  0.03388011  0.09406029  0.37188374     0.03500
C60         C  0.02551427  0.11997731  0.35904692    -0.12600
C61         C  0.02604901  0.14326542  0.38119414     0.01000
C62         C  0.03509405  0.14062573  0.41587441    -0.11100
C63         C  0.04303585  0.11491417  0.42910546     0.03500
C64         C  0.04287782  0.09176758  0.40677306    -0.10600
H65         H  0.01766931  0.12181191  0.33254851     0.09100
H66         H  0.03424943  0.15848855  0.43324179     0.06700
H67         H  0.04887542  0.07175099  0.41684915     0.06500
In68       In  0.01846484  0.44592214  0.25500761     1.36900
C69         C  0.06628276  0.43710851  0.21710636     0.78000
O70         O  0.03657380  0.48889241  0.26042593    -0.60400
O71         O  0.01120088  0.47316717  0.30199086    -0.51400
C72         C  0.47005155  0.45427691  0.22017491     0.70700
O73         O  0.49119074  0.44087816  0.20755077    -0.46200
C74         C  0.01117529  0.39992267  0.29157211     0.75400
O75         O  0.06366998  0.42958146  0.24854653    -0.58100
O76         O  0.00137140  0.40285316  0.26118763    -0.48200
O77         O  0.04457313  0.44955326  0.20554337    -0.54500
C78         C  0.02541172  0.49316959  0.29037513     0.85500
O79         O  0.47344134  0.46280586  0.25113802    -0.56400
O80         O  0.02481880  0.42042880  0.30275316    -0.59700
C81         C  0.37461996  0.98436932  0.13441820     0.03500
C82         C  0.34586563  0.47470639  0.13963332    -0.12600
C83         C  0.32392107  0.48204389  0.11637122     0.01000
C84         C  0.33089481  0.00073694  0.08955740    -0.11100
C85         C  0.35915948  0.00924195  0.08286268     0.03500
C86         C  0.38062798  0.00207398  0.10645090    -0.10600
H87         H  0.34199399  0.45939956  0.15959070     0.09100
H88         H  0.31418151  0.00744552  0.07212829     0.06700
H89         H  0.40241728  0.00905436  0.10187186     0.06500
C90         C  0.16708954  0.41182073  0.13213254     0.03500
C91         C  0.19386594  0.42400431  0.13831190    -0.12600
C92         C  0.21701866  0.41972204  0.11457958     0.01000
C93         C  0.21278076  0.40250944  0.08512920    -0.11100
C94         C  0.18546356  0.39249777  0.07700038     0.03500
C95         C  0.16306925  0.39603422  0.10162138    -0.10600
H96         H  0.19577862  0.43825077  0.16015999     0.09100
H97         H  0.23022605  0.39913740  0.06641728     0.06700
H98         H  0.14192763  0.38804901  0.09602997     0.06500
C99         C  0.24400965  0.43626693  0.11660206    -0.05000
C100        C  0.25674572  0.44538879  0.08517049    -0.32500
C101        C  0.28264254  0.45956512  0.08476067     0.37600
C102        C  0.29589266  0.46706203  0.11653053    -0.05400
C103        C  0.28284208  0.45871687  0.14826905    -0.32400
C104        C  0.25738318  0.44318863  0.14850663     0.36700
H105        H  0.24685933  0.44131302  0.06014625     0.17000
O106        O  0.29574008  0.46415624  0.05286556    -0.59900
H107        H  0.29254596  0.46392035  0.17308671     0.17100
O108        O  0.24672032  0.43372187  0.17985459    -0.60000
H109        H  0.23926871  0.45029336  0.19262165     0.44100
H110        H  0.28327890  0.47776880  0.04101113     0.44000
C111        C  0.39735578  0.47565475  0.15764143    -0.05000
C112        C  0.39596723  0.47984933  0.19408407    -0.32500
C113        C  0.41915957  0.47237032  0.21510999     0.36800
C114        C  0.44409146  0.46029295  0.19965086    -0.05400
C115        C  0.44480070  0.45503185  0.16338875    -0.32400
C116        C  0.42183654  0.46280727  0.14239154     0.36700
H117        H  0.37715987  0.48959497  0.20611515     0.17000
O118        O  0.41741125  0.47751018  0.25053101    -0.59900
H119        H  0.46356434  0.44550545  0.15097597     0.17100
O120        O  0.42488114  0.95706920  0.10625760    -0.60000
H121        H  0.43965676  0.96986570  0.09712244     0.44100
H122        H  0.40987206  0.46030002  0.26086627     0.44000
C123        C  0.09245969  0.43149668  0.19552873    -0.05000
C124        C  0.11555838  0.41674246  0.20991032    -0.32500
C125        C  0.14018718  0.41045339  0.18966539     0.36800
C126        C  0.14194523  0.41888467  0.15457124    -0.05400
C127        C  0.11905516  0.43369589  0.14018107    -0.32400
C128        C  0.09455042  0.44019908  0.16036084     0.36700
H129        H  0.11443546  0.40979667  0.23680922     0.17000
O130        O  0.16219977  0.39568897  0.20418621    -0.59900
H131        H  0.12024814  0.44028913  0.11311703     0.17100
O132        O  0.07262697  0.45463552  0.14514457    -0.60000
H133        H  0.07698731  0.47432010  0.14961869     0.44100
H134        H  0.15850988  0.37619203  0.19774139     0.44000
C135        C  0.02756562  0.01945366  0.31044035    -0.05000
C136        C  0.01155307  0.02296510  0.34174483    -0.32500
C137        C  0.01312848  0.04733149  0.36142615     0.36800
C138        C  0.03105399  0.06881128  0.35015263    -0.05400
C139        C  0.04689004  0.06562029  0.31872178    -0.32400
C140        C  0.04531216  0.04112858  0.29888144     0.36700
H141        H  0.99760930  0.00675903  0.35109038     0.17000
O142        O  0.99703330  0.04996889  0.39176821    -0.59900
H143        H  0.06092495  0.08194193  0.30992118     0.17100
O144        O  0.06185384  0.03832171  0.26892967    -0.60000
H145        H  0.05103359  0.04810169  0.25053985     0.44100
H146        H  0.47833355  0.05790695  0.38441614     0.44000
C147        C  0.49550402  0.32761755  0.35337254    -0.05000
C148        C  0.01183209  0.34942356  0.36680671    -0.32500
C149        C  0.01748944  0.37274647  0.34682278     0.36800
C150        C  0.50672090  0.37477223  0.31256475    -0.05400
C151        C  0.49093399  0.35271587  0.29872461    -0.32400
C152        C  0.48521344  0.32932772  0.31885438     0.36700
H153        H  0.02039127  0.34837963  0.39304258     0.17000
O154        O  0.03310547  0.39364555  0.36147007    -0.59900
H155        H  0.48253070  0.35377174  0.27241902     0.17100
O156        O  0.46897073  0.30862636  0.30480878    -0.60000
H157        H  0.44881551  0.31340440  0.31140177     0.44100
H158        H  0.05345530  0.38915869  0.35546517     0.44000
C159        C  0.99599051  0.22559093  0.37487593    -0.05000
C160        C  0.02412041  0.21905264  0.36347666    -0.32500
C161        C  0.03346436  0.19154531  0.36139615     0.36800
C162        C  0.01455882  0.17027736  0.37059973    -0.05400
C163        C  0.98567992  0.17663779  0.37842025    -0.32400
C164        C  0.47631461  0.20413534  0.38066863     0.36700
H165        H  0.03950395  0.23532099  0.35895689     0.17000
O166        O  0.06179760  0.18579429  0.35371968    -0.59900
H167        H  0.97095523  0.16038659  0.38561337     0.17100
O168        O  0.44826604  0.20999133  0.38993739    -0.60000
H169        H  0.44671179  0.20624463  0.41541683     0.44100
H170        H  0.06227983  0.18070557  0.32846301     0.44000
C171        C  0.04766021  0.11448041  0.54132501    -0.05000
C172        C  0.03096947  0.09492646  0.52367335    -0.32500
C173        C  0.03072062  0.09371080  0.48706831     0.36800
C174        C  0.04752165  0.11213415  0.46731328    -0.05400
C175        C  0.06569052  0.13049250  0.48491244    -0.32400
C176        C  0.06604753  0.13158137  0.52164558     0.36700
H177        H  0.01657182  0.08167632  0.53824155     0.17000
O178        O  0.01239946  0.07573632  0.47096025    -0.59900
H179        H  0.07891024  0.14465116  0.47009272     0.17100
O180        O  0.08369408  0.15004741  0.53798874    -0.60000
H181        H  0.10057337  0.13904234  0.54538903     0.44100
H182        H  0.99427271  0.08629136  0.46787636     0.44000
C183        C  0.47757109  0.29464325  0.54689416    -0.05000
C184        C  0.45674327  0.27839201  0.53043005    -0.32500
C185        C  0.45545739  0.27668915  0.49381051     0.36800
C186        C  0.47519609  0.29136809  0.47295681    -0.05400
C187        C  0.49462853  0.30915872  0.48938960    -0.32400
C188        C  0.49606776  0.31074417  0.52599374     0.36700
H189        H  0.44217979  0.26606210  0.54606459     0.17000
O190        O  0.43557163  0.25979476  0.47867786    -0.59900
H191        H  0.01007995  0.32053336  0.47382861     0.17100
O192        O  0.01696940  0.32659556  0.54090095    -0.60000
H193        H  0.03386436  0.31414651  0.54305485     0.44100
H194        H  0.41846873  0.27171713  0.47502138     0.44000
C195        C  0.00209795  0.23218608  0.64317027    -0.05000
C196        C  0.03119784  0.22496649  0.64635328    -0.32500
C197        C  0.03990552  0.19727332  0.64443813     0.36800
C198        C  0.01930431  0.17647542  0.64034657    -0.05400
C199        C  0.99000854  0.18356368  0.64063630    -0.32400
C200        C  0.98133443  0.21126401  0.64184103     0.36700
H201        H  0.04739119  0.24087531  0.64701171     0.17000
O202        O  0.06867056  0.19078200  0.64438528    -0.59900
H203        H  0.97400453  0.16773189  0.63702999     0.17100
O204        O  0.45280552  0.21777500  0.63846672    -0.60000
H205        H  0.44584897  0.22228266  0.66257710     0.44100
H206        H  0.07528108  0.19285087  0.61970347     0.44000
C207        C  0.50244797  0.33443069  0.66436293    -0.05000
C208        C  0.48840527  0.33781722  0.69698203    -0.32500
C209        C  0.49303868  0.36132742  0.71772793     0.36800
C210        C  0.51195296  0.38195401  0.70581697    -0.05400
C211        C  0.52659884  0.37807648  0.67365238    -0.32400
C212        C  0.52198615  0.35458109  0.65299116     0.36700
H213        H  0.47328745  0.32247670  0.70601138     0.17000
O214        O  0.97799264  0.36443607  0.74879522    -0.59900
H215        H  0.54163433  0.39337655  0.66432285     0.17100
O216        O  0.53734336  0.35101707  0.62221291    -0.60000
H217        H  0.52873925  0.36415301  0.60550993     0.44100
H218        H  0.48996552  0.35505385  0.76652560     0.44000
C219        C  0.02580746  0.02496259  0.69758139    -0.05000
C220        C  0.04094224  0.04782725  0.71039536    -0.32500
C221        C  0.04220847  0.07237446  0.69150576     0.36800
C222        C  0.02855233  0.07428274  0.65896127    -0.05400
C223        C  0.01318002  0.05155678  0.64624464    -0.32400
C224        C  0.01158667  0.02711772  0.66532181     0.36700
H225        H  0.05200884  0.04670138  0.73514535     0.17000
O226        O  0.05820127  0.09382636  0.70410786    -0.59900
H227        H  0.00248729  0.05271851  0.62123668     0.17100
O228        O  0.49675724  0.00527975  0.65166126    -0.60000
H229        H  0.47657992  0.00811733  0.65980498     0.44100
H230        H  0.04603520  0.10269879  0.72268192     0.44000
C231        C  0.18201350  0.38825960  0.96604610    -0.05000
C232        C  0.15906192  0.40038023  0.98515104    -0.32500
C233        C  0.15776993  0.39899999  0.02167130     0.36800
C234        C  0.17960628  0.38496733  0.03985501    -0.05400
C235        C  0.19998122  0.36928804  0.02038119    -0.32400
C236        C  0.20151523  0.37110166  0.98366476     0.36700
H237        H  0.14382857  0.41376094  0.97225829     0.17000
O238        O  0.13757079  0.41490375  0.03922591    -0.59900
H239        H  0.21642518  0.35770078  0.03381442     0.17100
O240        O  0.22291153  0.35724783  0.96532676    -0.60000
H241        H  0.24127987  0.36509114  0.97354993     0.44100
H242        H  0.11965416  0.40397494  0.03876585     0.44000
C243        C  0.09531634  0.44167426  0.81977050    -0.05000
C244        C  0.12123849  0.43388590  0.80276661    -0.32500
C245        C  0.14598570  0.42851492  0.82205980     0.36800
C246        C  0.14504282  0.43099677  0.85884299    -0.05400
C247        C  0.11941639  0.43947893  0.87576573    -0.32400
C248        C  0.09473757  0.44494515  0.85658100     0.36700
H249        H  0.12220994  0.43141533  0.77448697     0.17000
O250        O  0.17073403  0.42018798  0.80482964    -0.59900
H251        H  0.11852761  0.44175880  0.90408721     0.17100
O252        O  0.07015193  0.45320733  0.87420170    -0.60000
H253        H  0.07093629  0.47362885  0.87490346     0.44100
H254        H  0.17076540  0.39977467  0.80593408     0.44000
C255        C  0.36722545  0.02516643  0.97371878    -0.05000
C256        C  0.38680702  0.00733522  0.98977698    -0.32500
C257        C  0.38657800  0.00416248  0.02610663     0.36800
C258        C  0.36673770  0.01929617  0.04725687    -0.05400
C259        C  0.34989477  0.03984456  0.03163790    -0.32400
C260        C  0.35000907  0.04283742  0.99501359     0.36700
H261        H  0.40003377  0.99331415  0.97400085     0.17000
O262        O  0.40280833  0.98331276  0.03991551    -0.59900
H263        H  0.33493252  0.05203288  0.04756189     0.17100
O264        O  0.33220693  0.06197055  0.98002760    -0.60000
H265        H  0.31093211  0.55618997  0.98689756     0.44100
H266        H  0.42275124  0.99036727  0.04001856     0.44000
C267        C  0.39979011  0.49102040  0.85844990    -0.05000
C268        C  0.40495368  0.46314122  0.85001145    -0.32500
C269        C  0.42890809  0.45520420  0.82952188     0.36800
C270        C  0.44828988  0.47529752  0.81745360    -0.05400
C271        C  0.44264677  0.50319935  0.82510979    -0.32400
C272        C  0.41811432  0.01094927  0.84364226     0.36700
H273        H  0.39084469  0.44737774  0.86020529     0.17000
O274        O  0.43387112  0.42770067  0.82295780    -0.59900
H275        H  0.45632172  0.01911883  0.81359577     0.17100
O276        O  0.41289925  0.03837913  0.85055225    -0.60000
H277        H  0.42770588  0.04398138  0.86760192     0.44100
H278        H  0.42262587  0.42334340  0.80175206     0.44000
C279        C  0.29821899  0.47861518  0.90093391    -0.05000
C280        C  0.28472476  0.47357731  0.86875815    -0.32500
C281        C  0.25914561  0.45839162  0.86717666     0.36800
C282        C  0.24615544  0.44847482  0.89831728    -0.05400
C283        C  0.25941792  0.45436114  0.93042127    -0.32400
C284        C  0.28551189  0.46811931  0.93182532     0.36700
H285        H  0.29418809  0.48113419  0.84460732     0.17000
O286        O  0.24801551  0.45215506  0.83496765    -0.59900
H287        H  0.24987961  0.44795432  0.95505871     0.17100
O288        O  0.29937303  0.46938723  0.96333952    -0.60000
H289        H  0.28752409  0.48196100  0.97843566     0.44100
H290        H  0.24065541  0.46988220  0.82578410     0.44000
C291        C  0.37553425  0.99825168  0.88106894     0.03500
C292        C  0.34772235  0.98787913  0.87626471    -0.12600
C293        C  0.32571206  0.99372411  0.90100026     0.01000
C294        C  0.33157102  0.51136186  0.93073209    -0.11100
C295        C  0.35959126  0.51989606  0.93784691     0.03500
C296        C  0.38144660  0.51427892  0.91300672    -0.10600
H297        H  0.34363053  0.97441395  0.85408014     0.09100
H298        H  0.31458394  0.51600626  0.94957103     0.06700
H299        H  0.40332581  0.52014325  0.91869589     0.06500
C300        C  0.16899941  0.92431992  0.87956008     0.03500
C301        C  0.16548657  0.90550857  0.90691733    -0.12600
C302        C  0.18771991  0.90055220  0.93033943     0.01000
C303        C  0.21440635  0.91295087  0.92429440    -0.11100
C304        C  0.21819738  0.93290730  0.89804391     0.03500
C305        C  0.19511513  0.93839608  0.87560100    -0.10600
H306        H  0.14477436  0.89595899  0.91128946     0.09100
H307        H  0.23161415  0.90873298  0.94220587     0.06700
H308        H  0.19655798  0.95464184  0.85647510     0.06500
In309      In  0.02191122  0.95518452  0.75885878     1.36900
C310        C  0.06859614  0.94628354  0.79698995     0.78000
O311        O  0.00726993  0.91151650  0.75537493    -0.60400
O312        O  0.02762052  0.92875961  0.71060413    -0.51400
C313        C  0.47401940  0.96801112  0.79480889     0.70700
O314        O  0.49453366  0.98449804  0.79093951    -0.46200
C315        C  0.02487119  0.99946825  0.71853908     0.75400
O316        O  0.04390256  0.94987026  0.81029122    -0.58100
O317        O  0.00946765  0.97899973  0.71102429    -0.48200
O318        O  0.06931903  0.94694495  0.76400691    -0.54500
C319        C  0.01568392  0.90801308  0.72404636     0.85500
O320        O  0.47809161  0.94484557  0.78033584    -0.56400
O321        O  0.03921798  0.99670774  0.74607054    -0.59700
C322        C  0.49610460  0.80940118  0.64199676     0.03500
C323        C  0.50020652  0.78257198  0.65473847    -0.12600
C324        C  0.49510049  0.75969098  0.63297386     0.01000
C325        C  0.48602486  0.76375010  0.59853163    -0.11100
C326        C  0.48243169  0.79034816  0.58523120     0.03500
C327        C  0.48690181  0.81310864  0.60739173    -0.10600
H328        H  0.50815198  0.77953326  0.68100562     0.09100
H329        H  0.48365722  0.74602501  0.58127100     0.06700
H330        H  0.48371928  0.83375644  0.59752964     0.06500
C331        C  0.03194768  0.59810556  0.63803977     0.03500
C332        C  0.02569451  0.62480768  0.65105086    -0.12600
C333        C  0.02886909  0.64768174  0.62916899     0.01000
C334        C  0.03772270  0.64376383  0.59413243    -0.11100
C335        C  0.04334484  0.61724909  0.58056860     0.03500
C336        C  0.04076400  0.59457827  0.60284544    -0.10600
H337        H  0.01789158  0.62775841  0.67776875     0.09100
H338        H  0.03849089  0.66136975  0.57688216     0.06700
H339        H  0.04525384  0.57403333  0.59259569     0.06500
C340        C  0.48898784  0.80355778  0.37658952     0.03500
C341        C  0.48067854  0.80809599  0.41183937    -0.12600
C342        C  0.47750872  0.78601711  0.43491269     0.01000
C343        C  0.48148967  0.75904194  0.42205489    -0.11100
C344        C  0.48937760  0.75402879  0.38684467     0.03500
C345        C  0.49347921  0.77637440  0.36429064    -0.10600
H346        H  0.47758060  0.82896443  0.42171407     0.09100
H347        H  0.48045313  0.74192347  0.44005368     0.06700
H348        H  0.50107516  0.77259091  0.33764415     0.06500
C349        C  0.03429170  0.59375174  0.37245568     0.03500
C350        C  0.02615512  0.61981189  0.35981978    -0.12600
C351        C  0.02666406  0.64296666  0.38223039     0.01000
C352        C  0.03541017  0.64002669  0.41699437    -0.11100
C353        C  0.04314327  0.61418224  0.43001993     0.03500
C354        C  0.04302637  0.59119404  0.40742744    -0.10600
H355        H  0.01853437  0.62186920  0.33324973     0.09100
H356        H  0.03457244  0.65777818  0.43454597     0.06700
H357        H  0.04890176  0.57109411  0.41734370     0.06500
In358      In  0.01869464  0.94571857  0.25551363     1.36900
C359        C  0.06664200  0.93747500  0.21771951     0.78000
O360        O  0.03638534  0.98880769  0.26075100    -0.60400
O361        O  0.01087356  0.97316201  0.30224143    -0.51400
C362        C  0.47056293  0.95370275  0.22010685     0.70700
O363        O  0.49192684  0.94052689  0.20768989    -0.46200
C364        C  0.01145351  0.89965194  0.29199487     0.75400
O365        O  0.06439064  0.93047330  0.24941064    -0.58100
O366        O  0.00183909  0.90253841  0.26151924    -0.48200
O367        O  0.04453698  0.94909503  0.20594060    -0.54500
C368        C  0.02505318  0.99316946  0.29057962     0.85500
O369        O  0.47358208  0.96217129  0.25116966    -0.56400
O370        O  0.02499581  0.92019079  0.30325914    -0.59700
C371        C  0.37366886  0.48539290  0.13544766     0.03500
C372        C  0.34676670  0.97383202  0.13883200    -0.12600
C373        C  0.32472224  0.98132284  0.11578905     0.01000
C374        C  0.33013331  0.50141863  0.09011083    -0.11100
C375        C  0.35836176  0.51023007  0.08378009     0.03500
C376        C  0.37971383  0.50319926  0.10760120    -0.10600
H377        H  0.34291633  0.95855523  0.15882994     0.09100
H378        H  0.31348564  0.50790866  0.07245860     0.06700
H379        H  0.40148411  0.51033095  0.10329772     0.06500
C380        C  0.16719581  0.91261889  0.13195989     0.03500
C381        C  0.19415839  0.92446368  0.13809622    -0.12600
C382        C  0.21715946  0.92005873  0.11419722     0.01000
C383        C  0.21260661  0.90312333  0.08457730    -0.11100
C384        C  0.18517253  0.89334369  0.07652651     0.03500
C385        C  0.16293859  0.89694872  0.10135788    -0.10600
H386        H  0.19637953  0.93855234  0.16006285     0.09100
H387        H  0.22997727  0.89972820  0.06577510     0.06700
H388        H  0.14176836  0.88894778  0.09599886     0.06500
C389        C  0.24436697  0.93625002  0.11623585    -0.05000
C390        C  0.25695120  0.94558782  0.08483837    -0.32500
C391        C  0.28303742  0.95942161  0.08435490     0.37600
C392        C  0.29660426  0.96648038  0.11608304    -0.05400
C393        C  0.28374825  0.95785156  0.14782616    -0.32400
C394        C  0.25812399  0.94255971  0.14808320     0.36700
H395        H  0.24680698  0.94190539  0.05987633     0.17000
O396        O  0.29601361  0.96404400  0.05238945    -0.59900
H397        H  0.29371023  0.96265136  0.17261281     0.17100
O398        O  0.24765647  0.93271349  0.17933282    -0.60000
H399        H  0.24046067  0.94915162  0.19258656     0.44100
H400        H  0.28357263  0.97773806  0.04064840     0.44000
C401        C  0.39828612  0.97475781  0.15674169    -0.05000
C402        C  0.39649745  0.97862771  0.19322298    -0.32500
C403        C  0.41954557  0.97121922  0.21449392     0.36800
C404        C  0.44476508  0.95956920  0.19924973    -0.05400
C405        C  0.44591626  0.95462827  0.16292292    -0.32400
C406        C  0.42307293  0.96231407  0.14167728     0.36700
H407        H  0.37746112  0.98805257  0.20512096     0.17000
O408        O  0.41735863  0.97598499  0.24996690    -0.59900
H409        H  0.46491905  0.94541879  0.15067435     0.17100
O410        O  0.42323800  0.45731005  0.10701286    -0.60000
H411        H  0.43814223  0.46982114  0.09754451     0.44100
H412        H  0.40975616  0.95864365  0.25986969     0.44000
C413        C  0.09280930  0.93215975  0.19601914    -0.05000
C414        C  0.11691768  0.91938664  0.21093045    -0.32500
C415        C  0.14149062  0.91321386  0.19050465     0.36800
C416        C  0.14216760  0.91975343  0.15466675    -0.05400
C417        C  0.11828643  0.93273467  0.13982787    -0.32400
C418        C  0.09383895  0.93909126  0.16014894     0.36700
H419        H  0.11662635  0.91386686  0.23839710     0.17000
O420        O  0.16447633  0.90031823  0.20560831    -0.59900
H421        H  0.11861643  0.93797615  0.11225053     0.17100
O422        O  0.07086602  0.95147110  0.14435220    -0.60000
H423        H  0.07440217  0.97154378  0.14642267     0.44100
H424        H  0.16193566  0.88041106  0.20047411     0.44000
C425        C  0.02804289  0.51937056  0.31042049    -0.05000
C426        C  0.01211001  0.52272992  0.34180498    -0.32500
C427        C  0.01363908  0.54702740  0.36161967     0.36800
C428        C  0.03147766  0.56861085  0.35045499    -0.05400
C429        C  0.04725505  0.56557432  0.31893886    -0.32400
C430        C  0.04569533  0.54114184  0.29893575     0.36700
H431        H  0.99822192  0.50646279  0.35109926     0.17000
O432        O  0.99755305  0.54949967  0.39198710    -0.59900
H433        H  0.06122540  0.58196450  0.31019641     0.17100
O434        O  0.06213353  0.53850139  0.26888006    -0.60000
H435        H  0.05103199  0.54801750  0.25051650     0.44100
H436        H  0.47890002  0.55759174  0.38476901     0.44000
C437        C  0.49532390  0.82749500  0.35388961    -0.05000
C438        C  0.01158005  0.84931334  0.36741794    -0.32500
C439        C  0.01741450  0.87257127  0.34738118     0.36800
C440        C  0.50684875  0.87454209  0.31301252    -0.05400
C441        C  0.49105082  0.85250083  0.29913649    -0.32400
C442        C  0.48519852  0.82915673  0.31929426     0.36700
H443        H  0.01998161  0.84830326  0.39373490     0.17000
O444        O  0.03304754  0.89344779  0.36205170    -0.59900
H445        H  0.48277386  0.85352464  0.27276672     0.17100
O446        O  0.46902835  0.80843126  0.30517517    -0.60000
H447        H  0.44898312  0.81255562  0.31292057     0.44100
H448        H  0.05339750  0.88891718  0.35610436     0.44000
C449        C  0.99685397  0.72549406  0.37564157    -0.05000
C450        C  0.02531195  0.71901659  0.36557376    -0.32500
C451        C  0.03471123  0.69150998  0.36371169     0.36800
C452        C  0.01553018  0.67016866  0.37174388    -0.05400
C453        C  0.98646074  0.67650889  0.37837868    -0.32400
C454        C  0.47701560  0.70401131  0.38049757     0.36700
H455        H  0.04080266  0.73532065  0.36189987     0.17000
O456        O  0.06324600  0.68579641  0.35731679    -0.59900
H457        H  0.97152755  0.66022438  0.38474615     0.17100
O458        O  0.44875788  0.70982783  0.38872799    -0.60000
H459        H  0.44665107  0.70631632  0.41421532     0.44100
H460        H  0.06466853  0.68173066  0.33180791     0.44000
C461        C  0.04795526  0.61309330  0.54225045    -0.05000
C462        C  0.03113310  0.59369608  0.52449943    -0.32500
C463        C  0.03080977  0.59266859  0.48786370     0.36800
C464        C  0.04763747  0.61114523  0.46820777    -0.05400
C465        C  0.06597988  0.62927123  0.48590184    -0.32400
C466        C  0.06644849  0.63014213  0.52262997     0.36700
H467        H  0.01668807  0.58045904  0.53901599     0.17000
O468        O  0.01241691  0.57482451  0.47164654    -0.59900
H469        H  0.07926511  0.64342650  0.47116405     0.17100
O470        O  0.08428892  0.64839449  0.53904280    -0.60000
H471        H  0.10102161  0.63719746  0.54647418     0.44100
H472        H  0.99434670  0.58547120  0.46857799     0.44000
C473        C  0.47717958  0.79373539  0.54719963    -0.05000
C474        C  0.45654322  0.77730321  0.53068043    -0.32500
C475        C  0.45506821  0.77592203  0.49405513     0.36800
C476        C  0.47444890  0.79108257  0.47326377    -0.05400
C477        C  0.49360689  0.80908345  0.48978877    -0.32400
C478        C  0.49523974  0.81035455  0.52638145     0.36700
H479        H  0.44227881  0.76461470  0.54624650     0.17000
O480        O  0.43541025  0.75883095  0.47883232    -0.59900
H481        H  0.00881687  0.82081486  0.47429788     0.17100
O482        O  0.01598985  0.82639893  0.54132425    -0.60000
H483        H  0.03320494  0.81428082  0.54280967     0.44100
H484        H  0.41801476  0.77046096  0.47567769     0.44000
C485        C  0.00304322  0.73143809  0.64332215    -0.05000
C486        C  0.03227992  0.72433605  0.64490094    -0.32500
C487        C  0.04102149  0.69664903  0.64317377     0.36800
C488        C  0.02035462  0.67572610  0.64088846    -0.05400
C489        C  0.99105008  0.68275700  0.64274139    -0.32400
C490        C  0.98232017  0.71046018  0.64370718     0.36700
H491        H  0.04842536  0.74029447  0.64423250     0.17000
O492        O  0.06980274  0.69024141  0.64161444    -0.59900
H493        H  0.97496776  0.66683846  0.64051963     0.17100
O494        O  0.45361594  0.71687279  0.64186853    -0.60000
H495        H  0.44743445  0.72095661  0.66639072     0.44100
H496        H  0.07555770  0.69239257  0.61664133     0.44000
C497        C  0.50253348  0.83374643  0.66409788    -0.05000
C498        C  0.48857513  0.83738955  0.69671561    -0.32500
C499        C  0.49301083  0.86121545  0.71693162     0.36800
C500        C  0.51164472  0.88188793  0.70447703    -0.05400
C501        C  0.52624357  0.87774251  0.67233966    -0.32400
C502        C  0.52182904  0.85393359  0.65221091     0.36700
H503        H  0.47363273  0.82202719  0.70611504     0.17000
O504        O  0.97809371  0.86455146  0.74803224    -0.59900
H505        H  0.54108276  0.89306901  0.66261736     0.17100
O506        O  0.53709893  0.85013275  0.62140822    -0.60000
H507        H  0.52838042  0.86306277  0.60453713     0.44100
H508        H  0.49029888  0.85576156  0.76592472     0.44000
C509        C  0.02555232  0.52453467  0.69974587    -0.05000
C510        C  0.04074636  0.54744086  0.71231203    -0.32500
C511        C  0.04218220  0.57182153  0.69309043     0.36800
C512        C  0.02863108  0.57352133  0.66044289    -0.05400
C513        C  0.01313885  0.55076791  0.64802029    -0.32400
C514        C  0.01136858  0.52650253  0.66744167     0.36700
H515        H  0.05177369  0.54646055  0.73710061     0.17000
O516        O  0.05826543  0.59328935  0.70547238    -0.59900
H517        H  0.00248455  0.55176868  0.62297651     0.17100
O518        O  0.49647718  0.50462537  0.65401956    -0.60000
H519        H  0.47631457  0.50758412  0.66215294     0.44100
H520        H  0.04620498  0.60222985  0.72409601     0.44000
C521        C  0.18132007  0.88910652  0.96557894    -0.05000
C522        C  0.15801671  0.90049167  0.98478274    -0.32500
C523        C  0.15681828  0.89895658  0.02132452     0.36800
C524        C  0.17918713  0.88560335  0.03941296    -0.05400
C525        C  0.19985014  0.87039488  0.01977676    -0.32400
C526        C  0.20126416  0.87233864  0.98307517     0.36700
H527        H  0.14233854  0.91343995  0.97197358     0.17000
O528        O  0.13599345  0.91402661  0.03896538    -0.59900
H529        H  0.21660175  0.85911887  0.03307243     0.17100
O530        O  0.22295580  0.85900154  0.96462853    -0.60000
H531        H  0.24116615  0.86701464  0.97310560     0.44100
H532        H  0.11857741  0.90238006  0.03851715     0.44000
C533        C  0.09451484  0.94168321  0.81816191    -0.05000
C534        C  0.12067355  0.93423528  0.80145821    -0.32500
C535        C  0.14530482  0.92902328  0.82105905     0.36800
C536        C  0.14401170  0.93132132  0.85786506    -0.05400
C537        C  0.11809019  0.93928548  0.87449484    -0.32400
C538        C  0.09352848  0.94456671  0.85501824     0.36700
H539        H  0.12195305  0.93200199  0.77316177     0.17000
O540        O  0.17030752  0.92109617  0.80408624    -0.59900
H541        H  0.11688565  0.94137047  0.90282580     0.17100
O542        O  0.06864581  0.95225673  0.87241554    -0.60000
H543        H  0.06927815  0.97266231  0.87396020     0.44100
H544        H  0.17065540  0.90067987  0.80511336     0.44000
C545        C  0.36675088  0.52640721  0.97481674    -0.05000
C546        C  0.38687756  0.50925832  0.99107116    -0.32500
C547        C  0.38658111  0.50614453  0.02741060     0.36800
C548        C  0.36607741  0.52063161  0.04836042    -0.05400
C549        C  0.34877074  0.54074261  0.03257509    -0.32400
C550        C  0.34896264  0.54367658  0.99594566     0.36700
H551        H  0.40063423  0.49560546  0.97544732     0.17000
O552        O  0.40348586  0.48586544  0.04136840    -0.59900
H553        H  0.33336625  0.55253608  0.04835025     0.17100
O554        O  0.33066948  0.56229014  0.98078487    -0.60000
H555        H  0.31231427  0.05626543  0.98602220     0.44100
H556        H  0.42313113  0.49362897  0.04172962     0.44000
C557        C  0.39930247  0.99072142  0.85646085    -0.05000
C558        C  0.40436722  0.96293753  0.84743903    -0.32500
C559        C  0.42824160  0.95520124  0.82665919     0.36800
C560        C  0.44761921  0.97540586  0.81484808    -0.05400
C561        C  0.44201296  0.00322782  0.82301521    -0.32400
C562        C  0.41864305  0.51112747  0.84542156     0.36700
H563        H  0.39027491  0.94708497  0.85743717     0.17000
O564        O  0.43314713  0.92776276  0.81957905    -0.59900
H565        H  0.45696873  0.51899562  0.81545900     0.17100
O566        O  0.41334098  0.53862377  0.85174747    -0.60000
H567        H  0.42807402  0.54447655  0.86875870     0.44100
H568        H  0.42179651  0.92364944  0.79838195     0.44000
C569        C  0.29767059  0.97909405  0.89977945    -0.05000
C570        C  0.28386438  0.97439398  0.86772414    -0.32500
C571        C  0.25801469  0.95959238  0.86632447     0.36800
C572        C  0.24504840  0.94977361  0.89754830    -0.05400
C573        C  0.25856025  0.95549653  0.92954411    -0.32400
C574        C  0.28494833  0.96873838  0.93074241     0.36700
H575        H  0.29331146  0.98187171  0.84352279     0.17000
O576        O  0.24661371  0.95360060  0.83419332    -0.59900
H577        H  0.24905311  0.94925092  0.95426630     0.17100
O578        O  0.29909643  0.96953419  0.96209173    -0.60000
H579        H  0.28753771  0.98207908  0.97756032     0.44100
H580        H  0.23933094  0.97143067  0.82523564     0.44000
C581        C  0.87579824  0.49875280  0.88263839     0.03500
C582        C  0.84817776  0.48797772  0.87778658    -0.12600
C583        C  0.82599046  0.49367508  0.90230398     0.01000
C584        C  0.83167939  0.01115313  0.92955965    -0.11100
C585        C  0.85986796  0.01911981  0.93668114     0.03500
C586        C  0.88155655  0.01335273  0.91168847    -0.10600
H587        H  0.84439657  0.47425157  0.85576792     0.09100
H588        H  0.81482847  0.01597890  0.94851751     0.06700
H589        H  0.90355344  0.01882390  0.91735633     0.06500
C590        C  0.67006291  0.42351680  0.88020436     0.03500
C591        C  0.66644729  0.40456489  0.90735584    -0.12600
C592        C  0.68865744  0.39935339  0.93071814     0.01000
C593        C  0.71546326  0.41153553  0.92471408    -0.11100
C594        C  0.71935787  0.43157907  0.89859575     0.03500
C595        C  0.69629329  0.43736433  0.87625524    -0.10600
H596        H  0.64562348  0.39524329  0.91177201     0.09100
H597        H  0.73263294  0.40719940  0.94265235     0.06700
H598        H  0.69783205  0.45372349  0.85729253     0.06500
In599      In  0.52228336  0.45481189  0.76120657     1.36900
C600        C  0.56922192  0.44611797  0.79891572     0.78000
O601        O  0.50770724  0.41107892  0.75725932    -0.60400
O602        O  0.52811327  0.42866345  0.71276161    -0.51400
C603        C  0.97465056  0.46773529  0.79750646     0.70700
O604        O  0.99525859  0.48411553  0.79366518    -0.46200
C605        C  0.52471670  0.49912042  0.72087316     0.75400
O606        O  0.54452654  0.44907464  0.81245406    -0.58100
O607        O  0.50926506  0.47863335  0.71360867    -0.48200
O608        O  0.56978621  0.44722483  0.76596141    -0.54500
C609        C  0.51612311  0.40782910  0.72588348     0.85500
O610        O  0.97854227  0.44456972  0.78294905    -0.56400
O611        O  0.53929438  0.49641077  0.74822989    -0.59700
C612        C  0.99605207  0.31023917  0.64193880     0.03500
C613        C  0.99978350  0.28335191  0.65466155    -0.12600
C614        C  0.99462871  0.26054995  0.63279636     0.01000
C615        C  0.98586139  0.26473436  0.59827532    -0.11100
C616        C  0.98262007  0.29135134  0.58496653     0.03500
C617        C  0.98722684  0.31407542  0.60717544    -0.10600
H618        H  0.00744166  0.28019824  0.68103722     0.09100
H619        H  0.98343387  0.24705191  0.58095563     0.06700
H620        H  0.98436742  0.33475179  0.59727286     0.06500
C621        C  0.53174626  0.09901745  0.63689215     0.03500
C622        C  0.52518359  0.12558470  0.65010631    -0.12600
C623        C  0.52818130  0.14859013  0.62842105     0.01000
C624        C  0.53717951  0.14494517  0.59338366    -0.11100
C625        C  0.54310308  0.11853568  0.57965491     0.03500
C626        C  0.54074228  0.09575139  0.60175522    -0.10600
H627        H  0.51726220  0.12831986  0.67680864     0.09100
H628        H  0.53782435  0.16264316  0.57627839     0.06700
H629        H  0.54547476  0.07529067  0.59137607     0.06500
C630        C  0.98916774  0.30371944  0.37613807     0.03500
C631        C  0.98128113  0.30830354  0.41151210    -0.12600
C632        C  0.97803958  0.28624924  0.43459078     0.01000
C633        C  0.98151438  0.25923924  0.42164314    -0.11100
C634        C  0.98896418  0.25417349  0.38629157     0.03500
C635        C  0.99314680  0.27650392  0.36373050    -0.10600
H636        H  0.97850196  0.32918571  0.42146417     0.09100
H637        H  0.98041451  0.24212994  0.43964855     0.06700
H638        H  0.00042956  0.27266240  0.33697346     0.06500
C639        C  0.53386201  0.09404886  0.37189373     0.03500
C640        C  0.52549705  0.11996554  0.35905474    -0.12600
C641        C  0.52603005  0.14325449  0.38120108     0.01000
C642        C  0.53507363  0.14061588  0.41588223    -0.11100
C643        C  0.54301412  0.11490458  0.42911540     0.03500
C644        C  0.54285544  0.09175683  0.40678469    -0.10600
H645        H  0.51765526  0.12179939  0.33255482     0.09100
H646        H  0.53422976  0.15847949  0.43324832     0.06700
H647        H  0.54885124  0.07174030  0.41686244     0.06500
In648      In  0.51845778  0.44592297  0.25501885     1.36900
C649        C  0.56627860  0.43711661  0.21712031     0.78000
O650        O  0.53656590  0.48889278  0.26044135    -0.60400
O651        O  0.51118028  0.47317152  0.30199725    -0.51400
C652        C  0.97005403  0.45427788  0.22017399     0.70700
O653        O  0.99119064  0.44087734  0.20754609    -0.46200
C654        C  0.51117403  0.39991976  0.29157993     0.75400
O655        O  0.56366474  0.42958560  0.24855894    -0.58100
O656        O  0.50137719  0.40284832  0.26119158    -0.48200
O657        O  0.54456969  0.44956354  0.20555907    -0.54500
C658        C  0.52539440  0.49317301  0.29038470     0.85500
O659        O  0.97344997  0.46281052  0.25113444    -0.56400
O660        O  0.52480659  0.42043054  0.30276801    -0.59700
C661        C  0.87462258  0.98441229  0.13441696     0.03500
C662        C  0.84585200  0.47470155  0.13965528    -0.12600
C663        C  0.82390732  0.48204128  0.11639426     0.01000
C664        C  0.83089234  0.00074789  0.08954443    -0.11100
C665        C  0.85915343  0.00926196  0.08284638     0.03500
C666        C  0.88062455  0.00210889  0.10643869    -0.10600
H667        H  0.84198042  0.45939226  0.15960963     0.09100
H668        H  0.81417649  0.00743978  0.07210828     0.06700
H669        H  0.90241105  0.00909561  0.10185625     0.06500
C670        C  0.66707413  0.41181860  0.13213099     0.03500
C671        C  0.69384989  0.42400173  0.13831408    -0.12600
C672        C  0.71700407  0.41972146  0.11458380     0.01000
C673        C  0.71276849  0.40250999  0.08513191    -0.11100
C674        C  0.68545200  0.39249875  0.07699827     0.03500
C675        C  0.66305461  0.39603619  0.10161585    -0.10600
H676        H  0.69576081  0.43824628  0.16016438     0.09100
H677        H  0.73021585  0.39913762  0.06642305     0.06700
H678        H  0.64191291  0.38805276  0.09602109     0.06500
C679        C  0.74399530  0.43626581  0.11661145    -0.05000
C680        C  0.75673610  0.44538645  0.08518202    -0.32500
C681        C  0.78263348  0.45956174  0.08477693     0.37600
C682        C  0.79587949  0.46705884  0.11654925    -0.05400
C683        C  0.78282460  0.45871505  0.14828557    -0.32400
C684        C  0.75736464  0.44318827  0.14851870     0.36700
H685        H  0.74685301  0.44131078  0.06015578     0.17000
O686        O  0.79573568  0.46415189  0.05288427    -0.59900
H687        H  0.79252582  0.46391885  0.17310477     0.17100
O688        O  0.74669641  0.43372413  0.17986534    -0.60000
H689        H  0.73924408  0.45029675  0.19262897     0.44100
H690        H  0.78327652  0.47776450  0.04102644     0.44000
C691        C  0.89734420  0.47564804  0.15766008    -0.05000
C692        C  0.89595887  0.47983609  0.19410409    -0.32500
C693        C  0.91915596  0.47235902  0.21512382     0.36800
C694        C  0.94408947  0.46029082  0.19965687    -0.05400
C695        C  0.94479489  0.45503416  0.16339397    -0.32400
C696        C  0.92182597  0.46280715  0.14240305     0.36700
H697        H  0.87715069  0.48957586  0.20614097     0.17000
O698        O  0.91741041  0.47749127  0.25054667    -0.59900
H699        H  0.96355933  0.44551367  0.15097552     0.17100
O700        O  0.92489783  0.95713448  0.10625934    -0.60000
H701        H  0.93967246  0.96993523  0.09713148     0.44100
H702        H  0.90988137  0.46027555  0.26087802     0.44000
C703        C  0.59245436  0.43150392  0.19554058    -0.05000
C704        C  0.61554279  0.41672703  0.20990963    -0.32500
C705        C  0.64016731  0.41043255  0.18965932     0.36800
C706        C  0.64193097  0.41888067  0.15457220    -0.05400
C707        C  0.61905165  0.43371471  0.14019465    -0.32400
C708        C  0.59455199  0.44022471  0.16038062     0.36700
H709        H  0.61441466  0.40976723  0.23680225     0.17000
O710        O  0.66217072  0.39564780  0.20416802    -0.59900
H711        H  0.62025013  0.44032232  0.11313676     0.17100
O712        O  0.57264099  0.45468839  0.14517880    -0.60000
H713        H  0.57701621  0.47436663  0.14967719     0.44100
H714        H  0.65846175  0.37615488  0.19771986     0.44000
C715        C  0.52756753  0.01943969  0.31045052    -0.05000
C716        C  0.51153453  0.02295734  0.34173895    -0.32500
C717        C  0.51310326  0.04732508  0.36141958     0.36800
C718        C  0.53104225  0.06879950  0.35016173    -0.05400
C719        C  0.54690023  0.06560157  0.31874830    -0.32400
C720        C  0.54532921  0.04110891  0.29890877     0.36700
H721        H  0.49757936  0.00675559  0.35107133     0.17000
O722        O  0.49698846  0.04996922  0.39174553    -0.59900
H723        H  0.56094653  0.08191862  0.30996102     0.17100
O724        O  0.56189209  0.03829536  0.26897514    -0.60000
H725        H  0.55108737  0.04807469  0.25057135     0.44100
H726        H  0.97836734  0.05789413  0.38445719     0.44000
C727        C  0.99550374  0.32762555  0.35337119    -0.05000
C728        C  0.51183594  0.34941333  0.36680782    -0.32500
C729        C  0.51749467  0.37273689  0.34682514     0.36800
C730        C  0.00671881  0.37477807  0.31256049    -0.05400
C731        C  0.99093288  0.35272064  0.29872158    -0.32400
C732        C  0.98521309  0.32933348  0.31885308     0.36700
H733        H  0.52039686  0.34836721  0.39304263     0.17000
O734        O  0.53311625  0.39363250  0.36147140    -0.59900
H735        H  0.98253091  0.35377444  0.27241518     0.17100
O736        O  0.96897147  0.30863062  0.30480913    -0.60000
H737        H  0.94881667  0.31340441  0.31140931     0.44100
H738        H  0.55346418  0.38914414  0.35545924     0.44000
C739        C  0.49597655  0.22558186  0.37487514    -0.05000
C740        C  0.52410677  0.21904156  0.36347899    -0.32500
C741        C  0.53344939  0.19153368  0.36140116     0.36800
C742        C  0.51454199  0.17026685  0.37060372    -0.05400
C743        C  0.48566291  0.17662922  0.37842093    -0.32400
C744        C  0.97633010  0.20414324  0.38066975     0.36700
H745        H  0.53949167  0.23530892  0.35896038     0.17000
O746        O  0.56178307  0.18578132  0.35372907    -0.59900
H747        H  0.47093679  0.16037906  0.38561350     0.17100
O748        O  0.94828142  0.20999748  0.38993978    -0.60000
H749        H  0.94672785  0.20624935  0.41541887     0.44100
H750        H  0.56226603  0.18068133  0.32847545     0.44000
C751        C  0.54765748  0.11446805  0.54133533    -0.05000
C752        C  0.53095857  0.09491879  0.52368677    -0.32500
C753        C  0.53070204  0.09370522  0.48708173     0.36800
C754        C  0.54750279  0.11212624  0.46732302    -0.05400
C755        C  0.56567782  0.13048130  0.48491798    -0.32400
C756        C  0.56604333  0.13156755  0.52165110     0.36700
H757        H  0.51656123  0.08167034  0.53825791     0.17000
O758        O  0.51237481  0.07573436  0.47097756    -0.59900
H759        H  0.57889725  0.14463830  0.47009525     0.17100
O760        O  0.58369773  0.15002900  0.53798981    -0.60000
H761        H  0.60057905  0.13902115  0.54537681     0.44100
H762        H  0.49425030  0.08629307  0.46789647     0.44000
C763        C  0.97753706  0.29466007  0.54688945    -0.05000
C764        C  0.95671332  0.27840853  0.53041776    -0.32500
C765        C  0.95543985  0.27670147  0.49379772     0.36800
C766        C  0.97518564  0.29137793  0.47295155    -0.05400
C767        C  0.99461293  0.30917000  0.48939052    -0.32400
C768        C  0.99604072  0.31075876  0.52599511     0.36700
H769        H  0.94214460  0.26608026  0.54604717     0.17000
O770        O  0.93555960  0.25980513  0.47865770    -0.59900
H771        H  0.51009076  0.32052361  0.47382252     0.17100
O772        O  0.51700008  0.32658060  0.54089257    -0.60000
H773        H  0.53389811  0.31413316  0.54303197     0.44100
H774        H  0.91845979  0.27172815  0.47498434     0.44000
C775        C  0.50214214  0.23217690  0.64318314    -0.05000
C776        C  0.53124129  0.22495383  0.64636425    -0.32500
C777        C  0.53994427  0.19725911  0.64445451     0.36800
C778        C  0.51933906  0.17646404  0.64036913    -0.05400
C779        C  0.49004443  0.18355657  0.64066327    -0.32400
C780        C  0.48137501  0.21125802  0.64186348     0.36700
H781        H  0.54743717  0.24086045  0.64701688     0.17000
O782        O  0.56870827  0.19076328  0.64440030    -0.59900
H783        H  0.47403732  0.16772691  0.63706232     0.17100
O784        O  0.95276433  0.21777722  0.63844078    -0.60000
H785        H  0.94580365  0.22227794  0.66255147     0.44100
H786        H  0.57531776  0.19282849  0.61971783     0.44000
C787        C  0.00241969  0.33443880  0.66435957    -0.05000
C788        C  0.98836755  0.33783399  0.69697097    -0.32500
C789        C  0.99300393  0.36134423  0.71771539     0.36800
C790        C  0.01193168  0.38196217  0.70581127    -0.05400
C791        C  0.02658751  0.37807543  0.67365465    -0.32400
C792        C  0.02197079  0.35458003  0.65299418     0.36700
H793        H  0.97323972  0.32250051  0.70599493     0.17000
O794        O  0.47803708  0.36441072  0.74881587    -0.59900
H795        H  0.04163305  0.39336847  0.66433045     0.17100
O796        O  0.03733519  0.35100730  0.62222269    -0.60000
H797        H  0.02873778  0.36414144  0.60551215     0.44100
H798        H  0.98990962  0.35507389  0.76651228     0.44000
C799        C  0.52579571  0.02495118  0.69760132    -0.05000
C800        C  0.54093509  0.04781330  0.71041386    -0.32500
C801        C  0.54220785  0.07235912  0.69152223     0.36800
C802        C  0.52855405  0.07426877  0.65897619    -0.05400
C803        C  0.51317557  0.05154578  0.64626168    -0.32400
C804        C  0.51157525  0.02710814  0.66534163     0.36700
H805        H  0.55200103  0.04668628  0.73516420     0.17000
O806        O  0.55820514  0.09380800  0.70412407    -0.59900
H807        H  0.50248329  0.05270869  0.62125355     0.17100
O808        O  0.99677417  0.00528664  0.65163936    -0.60000
H809        H  0.97659609  0.00811886  0.65978391     0.44100
H810        H  0.54604291  0.10268011  0.72270171     0.44000
C811        C  0.68202255  0.38824709  0.96604206    -0.05000
C812        C  0.65906689  0.40036873  0.98513894    -0.32500
C813        C  0.65776802  0.39899267  0.02165954     0.36800
C814        C  0.67960154  0.38496357  0.03985217    -0.05400
C815        C  0.69998139  0.36928366  0.02038638    -0.32400
C816        C  0.70152282  0.37109367  0.98366982     0.36700
H817        H  0.64383473  0.41374641  0.97223926     0.17000
O818        O  0.63756413  0.41489638  0.03920586    -0.59900
H819        H  0.71642357  0.35769904  0.03382630     0.17100
O820        O  0.72292466  0.35724051  0.96534074    -0.60000
H821        H  0.74128984  0.36508798  0.97356700     0.44100
H822        H  0.61964906  0.40396538  0.03874359     0.44000
C823        C  0.59532618  0.44165343  0.81976194    -0.05000
C824        C  0.62124999  0.43387394  0.80275506    -0.32500
C825        C  0.64599772  0.42849938  0.82204642     0.36800
C826        C  0.64505387  0.43096911  0.85883094    -0.05400
C827        C  0.61942508  0.43944102  0.87575676    -0.32400
C828        C  0.59474575  0.44490975  0.85657423     0.36700
H829        H  0.62222252  0.43141373  0.77447413     0.17000
O830        O  0.67074770  0.42018171  0.80481270    -0.59900
H831        H  0.61853495  0.44171186  0.90407925     0.17100
O832        O  0.57015808  0.45316102  0.87419881    -0.60000
H833        H  0.57094076  0.47358220  0.87491844     0.44100
H834        H  0.67078070  0.39976792  0.80590258     0.44000
C835        C  0.86721386  0.02518296  0.97369906    -0.05000
C836        C  0.88680528  0.00736312  0.98976008    -0.32500
C837        C  0.88657604  0.00419140  0.02609036     0.36800
C838        C  0.86672636  0.01931565  0.04723839    -0.05400
C839        C  0.84987202  0.03985396  0.03161671    -0.32400
C840        C  0.84998549  0.04284497  0.99499224     0.36700
H841        H  0.90004114  0.99334875  0.97398569     0.17000
O842        O  0.90281747  0.98335079  0.03990200    -0.59900
H843        H  0.83490211  0.05203506  0.04753896     0.17100
O844        O  0.83217091  0.06196660  0.98000439    -0.60000
H845        H  0.81091193  0.55618121  0.98692317     0.44100
H846        H  0.92275561  0.99041675  0.04000936     0.44000
C847        C  0.89979356  0.49102151  0.85848243    -0.05000
C848        C  0.90496116  0.46314196  0.85005039    -0.32500
C849        C  0.92891384  0.45520556  0.82955748     0.36800
C850        C  0.94828968  0.47530022  0.81747760    -0.05400
C851        C  0.94264281  0.50320240  0.82512937    -0.32400
C852        C  0.91811067  0.01096595  0.84361719     0.36700
H853        H  0.89085555  0.44737799  0.86025001     0.17000
O854        O  0.93387870  0.42770181  0.82299720    -0.59900
H855        H  0.95631428  0.01913718  0.81356461     0.17100
O856        O  0.91289369  0.03839573  0.85052532    -0.60000
H857        H  0.92770055  0.04399978  0.86757380     0.44100
H858        H  0.92263233  0.42334163  0.80179321     0.44000
C859        C  0.79821888  0.47861425  0.90094803    -0.05000
C860        C  0.78472977  0.47357591  0.86876900    -0.32500
C861        C  0.75915296  0.45838696  0.86718107     0.36800
C862        C  0.74616021  0.44846661  0.89831827    -0.05400
C863        C  0.75941608  0.45435581  0.93042571    -0.32400
C864        C  0.78550772  0.46811746  0.93183639     0.36700
H865        H  0.79419574  0.48113445  0.84462055     0.17000
O866        O  0.74802806  0.45215083  0.83496920    -0.59900
H867        H  0.74987471  0.44794791  0.95506093     0.17100
O868        O  0.79936324  0.46938713  0.96335426    -0.60000
H869        H  0.78751018  0.48195927  0.97844742     0.44100
H870        H  0.74066495  0.46987710  0.82578727     0.44000
C871        C  0.87553242  0.99826621  0.88104787     0.03500
C872        C  0.84772307  0.98788752  0.87624331    -0.12600
C873        C  0.82571230  0.99372572  0.90097977     0.01000
C874        C  0.83156647  0.51136140  0.93075379    -0.11100
C875        C  0.85958539  0.51989757  0.93787316     0.03500
C876        C  0.88144381  0.51428148  0.91303609    -0.10600
H877        H  0.84363381  0.97442169  0.85405853     0.09100
H878        H  0.81457693  0.51600484  0.94958964     0.06700
H879        H  0.90332196  0.52014805  0.91872739     0.06500
C880        C  0.66900434  0.92430965  0.87956703     0.03500
C881        C  0.66549375  0.90550113  0.90692808    -0.12600
C882        C  0.68773043  0.90054415  0.93034535     0.01000
C883        C  0.71441830  0.91293670  0.92428986    -0.11100
C884        C  0.71820686  0.93289324  0.89803869     0.03500
C885        C  0.69512078  0.93838382  0.87560178    -0.10600
H886        H  0.64478104  0.89595447  0.91130745     0.09100
H887        H  0.73162910  0.90871501  0.94219549     0.06700
H888        H  0.69656093  0.95462960  0.85647588     0.06500
In889      In  0.52190671  0.95516930  0.75887683     1.36900
C890        C  0.56859307  0.94626354  0.79700397     0.78000
O891        O  0.50727216  0.91149835  0.75539659    -0.60400
O892        O  0.52762346  0.92874363  0.71062679    -0.51400
C893        C  0.97401866  0.96802818  0.79478384     0.70700
O894        O  0.99451089  0.98453233  0.79086069    -0.46200
C895        C  0.52485876  0.99945656  0.71855885     0.75400
O896        O  0.54389801  0.94983790  0.81030664    -0.58100
O897        O  0.50944966  0.97899099  0.71105007    -0.48200
O898        O  0.56931624  0.94693701  0.76402130    -0.54500
C899        C  0.51568731  0.90799643  0.72406790     0.85500
O900        O  0.97811582  0.94484491  0.78036781    -0.56400
O901        O  0.53921331  0.99669190  0.74608309    -0.59700
C902        C  0.99610433  0.80940251  0.64200088     0.03500
C903        C  0.00020530  0.78257302  0.65474388    -0.12600
C904        C  0.99509379  0.75969123  0.63298146     0.01000
C905        C  0.98601600  0.76375045  0.59854024    -0.11100
C906        C  0.98242530  0.79034825  0.58523854     0.03500
C907        C  0.98689681  0.81310877  0.60739789    -0.10600
H908        H  0.00815406  0.77953463  0.68100950     0.09100
H909        H  0.98364709  0.74602516  0.58128024     0.06700
H910        H  0.98371353  0.83375629  0.59753524     0.06500
C911        C  0.53194846  0.59810627  0.63804269     0.03500
C912        C  0.52569883  0.62480772  0.65105902    -0.12600
C913        C  0.52887152  0.64768351  0.62917981     0.01000
C914        C  0.53771814  0.64376848  0.59414055    -0.11100
C915        C  0.54333582  0.61725498  0.58057090     0.03500
C916        C  0.54075795  0.59458205  0.60284513    -0.10600
H917        H  0.51789989  0.62775678  0.67777881     0.09100
H918        H  0.53848355  0.66137613  0.57689296     0.06700
H919        H  0.54524536  0.57403800  0.59259103     0.06500
C920        C  0.98901120  0.80355684  0.37659700     0.03500
C921        C  0.98069980  0.80809206  0.41184639    -0.12600
C922        C  0.97753966  0.78601206  0.43491948     0.01000
C923        C  0.98153567  0.75903826  0.42206310    -0.11100
C924        C  0.98942795  0.75402842  0.38685362     0.03500
C925        C  0.99351772  0.77637538  0.36429860    -0.10600
H926        H  0.97759120  0.82895949  0.42172028     0.09100
H927        H  0.98050392  0.74191910  0.44006133     0.06700
H928        H  0.00111394  0.77259522  0.33765146     0.06500
C929        C  0.53426380  0.59375920  0.37245762     0.03500
C930        C  0.52612000  0.61981669  0.35982111    -0.12600
C931        C  0.52662248  0.64297173  0.38223082     0.01000
C932        C  0.53537216  0.64003570  0.41699409    -0.11100
C933        C  0.54311352  0.61419359  0.43002016     0.03500
C934        C  0.54300073  0.59120437  0.40742888    -0.10600
H935        H  0.51849666  0.62187115  0.33325180     0.09100
H936        H  0.53453042  0.65778762  0.43454482     0.06700
H937        H  0.54888044  0.57110580  0.41734581     0.06500
In938      In  0.51870551  0.94571060  0.25550579     1.36900
C939        C  0.56665956  0.93747666  0.21772215     0.78000
O940        O  0.53640176  0.98879584  0.26076223    -0.60400
O941        O  0.51087177  0.97314986  0.30223643    -0.51400
C942        C  0.97055535  0.95373055  0.22011876     0.70700
O943        O  0.99192526  0.94057111  0.20768874    -0.46200
C944        C  0.51146577  0.89964688  0.29199059     0.75400
O945        O  0.56439046  0.93044002  0.24939851    -0.58100
O946        O  0.50186775  0.90252589  0.26150584    -0.48200
O947        O  0.54456864  0.94912821  0.20595223    -0.54500
C948        C  0.52505913  0.99315649  0.29058560     0.85500
O949        O  0.97356413  0.96216848  0.25119687    -0.56400
O950        O  0.52499153  0.92019304  0.30326466    -0.59700
C951        C  0.87365506  0.48538926  0.13547125     0.03500
C952        C  0.84677244  0.97386931  0.13883831    -0.12600
C953        C  0.82472681  0.98134351  0.11578972     0.01000
C954        C  0.83011896  0.50141854  0.09013686    -0.11100
C955        C  0.85834701  0.51023151  0.08380748     0.03500
C956        C  0.87969876  0.50319987  0.10762867    -0.10600
H957        H  0.84292551  0.95859910  0.15884559     0.09100
H958        H  0.81347097  0.50790867  0.07248510     0.06700
H959        H  0.90146852  0.51033361  0.10332735     0.06500
C960        C  0.66721570  0.91261478  0.13197651     0.03500
C961        C  0.69417833  0.92445772  0.13811458    -0.12600
C962        C  0.71718066  0.92005078  0.11421734     0.01000
C963        C  0.71262725  0.90311115  0.08460029    -0.11100
C964        C  0.68519063  0.89334094  0.07654328     0.03500
C965        C  0.66295533  0.89694998  0.10137190    -0.10600
H966        H  0.69639650  0.93854705  0.16008064     0.09100
H967        H  0.72999900  0.89970684  0.06580251     0.06700
H968        H  0.64178215  0.88895770  0.09600886     0.06500
C969        C  0.74438810  0.93624506  0.11625190    -0.05000
C970        C  0.75698382  0.94556026  0.08484889    -0.32500
C971        C  0.78306621  0.95939998  0.08436269     0.37600
C972        C  0.79661648  0.96649001  0.11608945    -0.05400
C973        C  0.78375147  0.95788416  0.14783711    -0.32400
C974        C  0.75813116  0.94258585  0.14810012     0.36700
H975        H  0.74685106  0.94185904  0.05988440     0.17000
O976        O  0.79605528  0.96400012  0.05239902    -0.59900
H977        H  0.79370335  0.96270804  0.17262283     0.17100
O978        O  0.74765379  0.93276598  0.17935886    -0.60000
H979        H  0.74045692  0.94921562  0.19258927     0.44100
H980        H  0.78361518  0.97768027  0.04063083     0.44000
C981        C  0.89829189  0.97481044  0.15674253    -0.05000
C982        C  0.89649778  0.97867413  0.19322488    -0.32500
C983        C  0.91954239  0.97126139  0.21449956     0.36800
C984        C  0.94476310  0.95961179  0.19925805    -0.05400
C985        C  0.94592181  0.95468275  0.16292897    -0.32400
C986        C  0.92308278  0.96237303  0.14168007     0.36700
H987        H  0.87745879  0.98809511  0.20512138     0.17000
O988        O  0.91735058  0.97602211  0.24997322    -0.59900
H989        H  0.96492621  0.94547556  0.15068142     0.17100
O990        O  0.92322415  0.45731465  0.10702315    -0.60000
H991        H  0.93813094  0.46982407  0.09755604     0.44100
H992        H  0.90973147  0.95868468  0.25986828     0.44000
C993        C  0.59283052  0.93216292  0.19602801    -0.05000
C994        C  0.61691054  0.91932761  0.21092303    -0.32500
C995        C  0.64148388  0.91315223  0.19049976     0.36800
C996        C  0.64218937  0.91975181  0.15468167    -0.05400
C997        C  0.61833774  0.93279379  0.13985856    -0.32400
C998        C  0.59389038  0.93915459  0.16017820     0.36700
H999        H  0.61659578  0.91376037  0.23837355     0.17000
O1000       O  0.66444163  0.90019614  0.20558447    -0.59900
H1001       H  0.61869125  0.93807884  0.11229525     0.17100
O1002       O  0.57094726  0.95159980  0.14439910    -0.60000
H1003       H  0.57451287  0.97166346  0.14653929     0.44100
H1004       H  0.66186814  0.88030120  0.20040054     0.44000
C1005       C  0.52802016  0.51937608  0.31042691    -0.05000
C1006       C  0.51208296  0.52273740  0.34180803    -0.32500
C1007       C  0.51361040  0.54703582  0.36162122     0.36800
C1008       C  0.53145174  0.56861766  0.35045859    -0.05400
C1009       C  0.54723132  0.56558027  0.31894443    -0.32400
C1010       C  0.54567269  0.54114740  0.29894228     0.36700
H1011       H  0.49819354  0.50647089  0.35110108     0.17000
O1012       O  0.49752024  0.54951061  0.39198517    -0.59900
H1013       H  0.56120217  0.58197026  0.31020259     0.17100
O1014       O  0.56211147  0.53850696  0.26888706    -0.60000
H1015       H  0.55101101  0.54802412  0.25052364     0.44100
H1016       H  0.97892536  0.55756615  0.38477271     0.44000
C1017       C  0.99533328  0.82749689  0.35389730    -0.05000
C1018       C  0.51157222  0.84930910  0.36741483    -0.32500
C1019       C  0.51741629  0.87256536  0.34737865     0.36800
C1020       C  0.00683864  0.87454740  0.31301868    -0.05400
C1021       C  0.99103760  0.85250548  0.29914901    -0.32400
C1022       C  0.98519512  0.82915935  0.31930801     0.36700
H1023       H  0.51996713  0.84829874  0.39373499     0.17000
O1024       O  0.53305100  0.89343923  0.36205255    -0.59900
H1025       H  0.98275273  0.85352949  0.27278309     0.17100
O1026       O  0.96902308  0.80843205  0.30519649    -0.60000
H1027       H  0.94898056  0.81254965  0.31296005     0.44100
H1028       H  0.55340038  0.88890836  0.35610305     0.44000
C1029       C  0.49679594  0.72549215  0.37563359    -0.05000
C1030       C  0.52524649  0.71901451  0.36553168    -0.32500
C1031       C  0.53464801  0.69150872  0.36367267     0.36800
C1032       C  0.51547674  0.67016857  0.37174356    -0.05400
C1033       C  0.48641144  0.67650701  0.37840994    -0.32400
C1034       C  0.97706757  0.70401401  0.38047131     0.36700
H1035       H  0.54073260  0.73531872  0.36182948     0.17000
O1036       O  0.56317832  0.68579648  0.35724314    -0.59900
H1037       H  0.47148563  0.66022265  0.38480427     0.17100
O1038       O  0.94880527  0.70983149  0.38867471    -0.60000
H1039       H  0.94668530  0.70633069  0.41416287     0.44100
H1040       H  0.56457484  0.68169937  0.33174022     0.44000
C1041       C  0.54793903  0.61310339  0.54225068    -0.05000
C1042       C  0.53111538  0.59370628  0.52450164    -0.32500
C1043       C  0.53078692  0.59268045  0.48786603     0.36800
C1044       C  0.54761071  0.61115868  0.46820775    -0.05400
C1045       C  0.56595293  0.62928645  0.48589911    -0.32400
C1046       C  0.56642688  0.63015569  0.52262719     0.36700
H1047       H  0.51667361  0.58046731  0.53902010     0.17000
O1048       O  0.51239336  0.57483560  0.47165144    -0.59900
H1049       H  0.57923458  0.64344356  0.47115941     0.17100
O1050       O  0.58426769  0.64840935  0.53903717    -0.60000
H1051       H  0.60100131  0.63721348  0.54646724     0.44100
H1052       H  0.49432256  0.58548160  0.46858500     0.44000
C1053       C  0.97717995  0.79373505  0.54720550    -0.05000
C1054       C  0.95655117  0.77729829  0.53067932    -0.32500
C1055       C  0.95508701  0.77591423  0.49405345     0.36800
C1056       C  0.97446993  0.79107751  0.47326897    -0.05400
C1057       C  0.99361893  0.80908372  0.48979977    -0.32400
C1058       C  0.99524198  0.81035695  0.52639296     0.36700
H1059       H  0.94228521  0.76460786  0.54624064     0.17000
O1060       O  0.93543765  0.75881782  0.47882363    -0.59900
H1061       H  0.50880390  0.82081192  0.47428222     0.17100
O1062       O  0.51599444  0.82639199  0.54130637    -0.60000
H1063       H  0.53320859  0.81427165  0.54278088     0.44100
H1064       H  0.91804110  0.77044406  0.47565889     0.44000
C1065       C  0.50304944  0.73143906  0.64331813    -0.05000
C1066       C  0.53228587  0.72433699  0.64490195    -0.32500
C1067       C  0.54102656  0.69664957  0.64318452     0.36800
C1068       C  0.52035887  0.67572709  0.64090279    -0.05400
C1069       C  0.49105453  0.68275897  0.64275259    -0.32400
C1070       C  0.48232557  0.71046230  0.64370952     0.36700
H1071       H  0.54843175  0.74029497  0.64423055     0.17000
O1072       O  0.56980768  0.69024073  0.64162952    -0.59900
H1073       H  0.47497177  0.66684062  0.64053347     0.17100
O1074       O  0.95361024  0.71687004  0.64186834    -0.60000
H1075       H  0.94742757  0.72094377  0.66639230     0.44100
H1076       H  0.57556436  0.69238730  0.61665635     0.44000
C1077       C  0.00253668  0.83375034  0.66409688    -0.05000
C1078       C  0.98858495  0.83739518  0.69671825    -0.32500
C1079       C  0.99301724  0.86122618  0.71692570     0.36800
C1080       C  0.01164146  0.88190242  0.70445935    -0.05400
C1081       C  0.02623398  0.87775598  0.67231804    -0.32400
C1082       C  0.02182273  0.85394188  0.65219751     0.36700
H1083       H  0.97364909  0.82203046  0.70612686     0.17000
O1084       O  0.47808125  0.86454021  0.74803403    -0.59900
H1085       H  0.04106593  0.89308533  0.66258653     0.17100
O1086       O  0.03708636  0.85014076  0.62139023    -0.60000
H1087       H  0.02836476  0.86307095  0.60452160     0.44100
H1088       H  0.99031944  0.85578120  0.76592151     0.44000
C1089       C  0.52556393  0.52453132  0.69974501    -0.05000
C1090       C  0.54075315  0.54743965  0.71231336    -0.32500
C1091       C  0.54218592  0.57182111  0.69309279     0.36800
C1092       C  0.52863602  0.57352000  0.66044410    -0.05400
C1093       C  0.51314887  0.55076399  0.64801919    -0.32400
C1094       C  0.51138254  0.52649751  0.66743895     0.36700
H1095       H  0.55177901  0.54646050  0.73710300     0.17000
O1096       O  0.55826510  0.59329090  0.70547715    -0.59900
H1097       H  0.50249527  0.55176355  0.62297490     0.17100
O1098       O  0.99645767  0.50463284  0.65402535    -0.60000
H1099       H  0.97629561  0.50759662  0.66215936     0.44100
H1100       H  0.54620456  0.60222600  0.72410503     0.44000
C1101       C  0.68133375  0.88910784  0.96559091    -0.05000
C1102       C  0.65803818  0.90050493  0.98479750    -0.32500
C1103       C  0.65684262  0.89897292  0.02133962     0.36800
C1104       C  0.67920548  0.88560914  0.03942669    -0.05400
C1105       C  0.69986239  0.87039417  0.01978893    -0.32400
C1106       C  0.70127432  0.87233575  0.98308682     0.36700
H1107       H  0.64236433  0.91345850  0.97198901     0.17000
O1108       O  0.63602734  0.91405426  0.03898185    -0.59900
H1109       H  0.71661013  0.85911197  0.03308343     0.17100
O1110       O  0.72295968  0.85899035  0.96463894    -0.60000
H1111       H  0.74117357  0.86700014  0.97311033     0.44100
H1112       H  0.61860338  0.90241893  0.03853139     0.44000
C1113       C  0.59451341  0.94166512  0.81817418    -0.05000
C1114       C  0.62067351  0.93422514  0.80146823    -0.32500
C1115       C  0.64530680  0.92901667  0.82106709     0.36800
C1116       C  0.64401442  0.93130980  0.85787383    -0.05400
C1117       C  0.61809148  0.93926736  0.87450564    -0.32400
C1118       C  0.59352786  0.94454523  0.85503092     0.36700
H1119       H  0.62195270  0.93199549  0.77317136     0.17000
O1120       O  0.67031097  0.92109793  0.80409128    -0.59900
H1121       H  0.61688725  0.94134996  0.90283685     0.17100
O1122       O  0.56864442  0.95222978  0.87243038    -0.60000
H1123       H  0.56927257  0.97263564  0.87397638     0.44100
H1124       H  0.67066492  0.90068178  0.80511486     0.44000
C1125       C  0.86674029  0.52641116  0.97484424    -0.05000
C1126       C  0.88687114  0.50926844  0.99110126    -0.32500
C1127       C  0.88657291  0.50615462  0.02744074     0.36800
C1128       C  0.86606291  0.52063550  0.04838855    -0.05400
C1129       C  0.84875167  0.54074184  0.03260099    -0.32400
C1130       C  0.84894536  0.54367574  0.99597143     0.36700
H1131       H  0.90063343  0.49561950  0.97547926     0.17000
O1132       O  0.90348336  0.48588061  0.04139983    -0.59900
H1133       H  0.83334263  0.55253135  0.04837431     0.17100
O1134       O  0.83064790  0.56228445  0.98080873    -0.60000
H1135       H  0.81228183  0.05625315  0.98600526     0.44100
H1136       H  0.92312646  0.49364949  0.04176073     0.44000
C1137       C  0.89930200  0.99073735  0.85644055    -0.05000
C1138       C  0.90436826  0.96295354  0.84741974    -0.32500
C1139       C  0.92824123  0.95521777  0.82663748     0.36800
C1140       C  0.94761701  0.97542285  0.81482229    -0.05400
C1141       C  0.94200792  0.00324519  0.82298667    -0.32400
C1142       C  0.91864145  0.51112952  0.84544619     0.36700
H1143       H  0.89027742  0.94710041  0.85741952     0.17000
O1144       O  0.93314450  0.92777936  0.81955464    -0.59900
H1145       H  0.95695994  0.51899996  0.81547142     0.17100
O1146       O  0.91333586  0.53862578  0.85176772    -0.60000
H1147       H  0.92806695  0.54448140  0.86877947     0.44100
H1148       H  0.92179844  0.92366977  0.79835313     0.44000
C1149       C  0.79767657  0.97908686  0.89976144    -0.05000
C1150       C  0.78386366  0.97439259  0.86770964    -0.32500
C1151       C  0.75801574  0.95958784  0.86631365     0.36800
C1152       C  0.74505882  0.94975898  0.89753830    -0.05400
C1153       C  0.75857947  0.95547449  0.92953087    -0.32400
C1154       C  0.78496545  0.96872009  0.93072430     0.36700
H1155       H  0.79330353  0.98187869  0.84350851     0.17000
O1156       O  0.74660669  0.95360467  0.83418442    -0.59900
H1157       H  0.74908017  0.94922279  0.95425465     0.17100
O1158       O  0.79912198  0.96951139  0.96206813    -0.60000
H1159       H  0.78756484  0.98205048  0.97754601     0.44100
H1160       H  0.73932149  0.97143696  0.82523728     0.44000
loop_ 
_geom_bond_atom_site_label_1 
_geom_bond_atom_site_label_2 
_geom_bond_distance 
_geom_bond_site_symmetry_2 
_ccdc_geom_bond_type 
C1            C2   1.406       .  A
C1          C296   1.405       .  A
C1          C267   1.479       .  S
C2            C3   1.405       .  A
C2            H7   1.083       .  S
C3          C294   1.404       .  A
C3          C279   1.491       .  S
C4            C5   1.400       .  A
C4          C293   1.404   1_545  A
C4            H8   1.080       .  S
C5            C6   1.401       .  A
C5          C255   1.484       .  S
C6          C291   1.405   1_545  A
C6            H9   1.084       .  S
C10          C11   1.401       .  A
C10          C15   1.405       .  A
C10         C246   1.475       .  S
C11          C12   1.398       .  A
C11          H16   1.084       .  S
C12          C13   1.401       .  A
C12         C231   1.485       .  S
C13          C14   1.410       .  A
C13          H17   1.080       .  S
C14          C15   1.408       .  A
C14         C282   1.498       .  S
C15          H18   1.081       .  S
In19         O21   2.238       .  S
In19         O22   2.240       .  S
In19         O26   2.243       .  S
In19         O27   2.250       .  S
In19         O28   2.247       .  S
In19         O31   2.232       .  S
In19        O610   2.246   1_455  S
In19        O604   2.238   1_455  S
C20         C243   1.477       .  S
C20          O26   1.258       .  A
C20          O28   1.258       .  A
O21          C29   1.260       .  A
O22          C29   1.263       .  A
C23         C270   1.474       .  S
C23          O30   1.258       .  A
C23          O24   1.259       .  A
O24        In599   2.238       .  S
C25         C509   1.480       .  S
C25          O27   1.263       .  A
C25          O31   1.260       .  A
C29         C790   1.479       .  S
O30        In599   2.246       .  S
C32          C33   1.407       .  A
C32          C37   1.407       .  A
C32         C207   1.479       .  S
C33          C34   1.402       .  A
C33          H38   1.084       .  S
C34          C35   1.400       .  A
C34         C775   1.476       .  S
C35          C36   1.400       .  A
C35          H39   1.085       .  S
C36          C37   1.403       .  A
C36         C183   1.484       .  S
C37          H40   1.083       .  S
C41          C42   1.408       .  A
C41          C46   1.404       .  A
C41         C222   1.481       .  S
C42          C43   1.403       .  A
C42          H47   1.083       .  S
C43          C44   1.402       .  A
C43         C198   1.475       .  S
C44          C45   1.402       .  A
C44          H48   1.084       .  S
C45          C46   1.401       .  A
C45         C171   1.483       .  S
C46          H49   1.084       .  S
C50          C51   1.406       .  A
C50          C55   1.407       .  A
C50         C147   1.485       .  S
C51          C52   1.400       .  A
C51          H56   1.084       .  S
C52          C53   1.402       .  A
C52         C186   1.484       .  S
C53          C54   1.404       .  A
C53          H57   1.084       .  S
C54          C55   1.404       .  A
C54         C739   1.481       .  S
C55          H58   1.083       .  S
C59          C60   1.408       .  A
C59          C64   1.406       .  A
C59         C138   1.479       .  S
C60          C61   1.404       .  A
C60          H65   1.084       .  S
C61          C62   1.400       .  A
C61         C162   1.474       .  S
C62          C63   1.399       .  A
C62          H66   1.085       .  S
C63          C64   1.402       .  A
C63         C174   1.482       .  S
C64          H67   1.084       .  S
In68         O70   2.264       .  S
In68         O71   2.234       .  S
In68         O75   2.249       .  S
In68         O76   2.256       .  S
In68         O77   2.236       .  S
In68         O80   2.233       .  S
In68        O659   2.249   1_455  S
In68        O653   2.238   1_455  S
C69         C123   1.480       .  S
C69          O75   1.261       .  A
C69          O77   1.260       .  A
O70          C78   1.261       .  A
O71          C78   1.260       .  A
C72         C114   1.478       .  S
C72          O79   1.259       .  A
C72          O73   1.260       .  A
O73        In648   2.238       .  S
C74         C730   1.480       .  S
C74          O76   1.260       .  A
C74          O80   1.259       .  A
C78         C425   1.483       .  S
O79        In648   2.249       .  S
C81          C86   1.403   1_565  A
C81         C372   1.405       .  A
C81         C401   1.477       .  S
C82          C83   1.408       .  A
C82         C371   1.405       .  A
C82          H87   1.083       .  S
C83         C374   1.409       .  A
C83         C102   1.498       .  S
C84          C85   1.402       .  A
C84         C373   1.409   1_545  A
C84          H88   1.081       .  S
C85          C86   1.398       .  A
C85         C258   1.485       .  S
C86          H89   1.084       .  S
C90          C91   1.406       .  A
C90          C95   1.401       .  A
C90         C126   1.474       .  S
C91          C92   1.408       .  A
C91          H96   1.082       .  S
C92          C93   1.409       .  A
C92          C99   1.499       .  S
C93          C94   1.402       .  A
C93          H97   1.082       .  S
C94          C95   1.399       .  A
C94         C234   1.488       .  S
C95          H98   1.084       .  S
C99         C100   1.406       .  A
C99         C104   1.413       .  A
C100        C101   1.393       .  A
C100        H105   1.082       .  S
C101        C102   1.413       .  A
C101        O106   1.372       .  S
C102        C103   1.410       .  A
C103        C104   1.409       .  A
C103        H107   1.083       .  S
C104        O108   1.372       .  S
O106        H110   0.992       .  S
O108        H109   0.992       .  S
C111        C112   1.402       .  A
C111        C116   1.408       .  A
C111        C371   1.477       .  S
C112        C113   1.401       .  A
C112        H117   1.084       .  S
C113        C114   1.412       .  A
C113        O118   1.371       .  S
C114        C115   1.403       .  A
C115        C116   1.396       .  A
C115        H119   1.084       .  S
C116        O410   1.372       .  S
O118        H122   0.992       .  S
O120        C406   1.372       .  S
O120        H121   0.992       .  S
C123        C124   1.407       .  A
C123        C128   1.412       .  A
C124        C125   1.401       .  A
C124        H129   1.083       .  S
C125        C126   1.404       .  A
C125        O130   1.371       .  S
C126        C127   1.401       .  A
C127        C128   1.397       .  A
C127        H131   1.084       .  S
C128        O132   1.372       .  S
O130        H134   0.992       .  S
O132        H133   0.992       .  S
C135        C136   1.405       .  A
C135        C140   1.413       .  A
C135        C368   1.482   1_545  S
C136        C137   1.396       .  A
C136        H141   1.083   1_455  S
C137        C138   1.407       .  A
C137        O142   1.372   1_455  S
C138        C139   1.403       .  A
C139        C140   1.405       .  A
C139        H143   1.084       .  S
C140        O144   1.371       .  S
O142        H726   0.992       .  S
O144        H145   0.992       .  S
H146        O722   0.992       .  S
C147        C152   1.410       .  A
C147        C728   1.404       .  A
C148        C149   1.396       .  A
C148        C727   1.404   1_455  A
C148        H153   1.084       .  S
C149        C730   1.410       .  A
C149        O154   1.372       .  S
C150        C151   1.406       .  A
C150        C729   1.410       .  A
C150        C654   1.480       .  S
C151        C152   1.402       .  A
C151        H155   1.083       .  S
C152        O156   1.371       .  S
O154        H158   0.992       .  S
O156        H157   0.992       .  S
C159        C160   1.405   1_655  A
C159        C744   1.408       .  A
C159        C634   1.481       .  S
C160        C161   1.401       .  A
C160        H165   1.084       .  S
C161        C162   1.406       .  A
C161        O166   1.371       .  S
C162        C163   1.402   1_455  A
C163        C744   1.401       .  A
C163        H167   1.084       .  S
C164        C739   1.408       .  A
C164        C743   1.401       .  A
C164        O168   1.373       .  S
O166        H170   0.991       .  S
O168        H169   0.992       .  S
C171        C172   1.404       .  A
C171        C176   1.410       .  A
C172        C173   1.396       .  A
C172        H177   1.084       .  S
C173        C174   1.409       .  A
C173        O178   1.372       .  S
C174        C175   1.406       .  A
C175        C176   1.401       .  A
C175        H179   1.084       .  S
C176        O180   1.372       .  S
O178        H182   0.992   1_455  S
O180        H181   0.992       .  S
C183        C184   1.406       .  A
C183        C188   1.410       .  A
C184        C185   1.399       .  A
C184        H189   1.084       .  S
C185        C186   1.408       .  A
C185        O190   1.371       .  S
C186        C187   1.405       .  A
C187        C188   1.399       .  A
C187        H771   1.084       .  S
C188        O772   1.372       .  S
O190        H194   0.992       .  S
H191        C767   1.084   1_455  S
O192        C768   1.372   1_455  S
O192        H193   0.992       .  S
C195        C196   1.403       .  A
C195        C200   1.409   1_455  A
C195        C614   1.476   1_455  S
C196        C197   1.401       .  A
C196        H201   1.084       .  S
C197        C198   1.407       .  A
C197        O202   1.372       .  S
C198        C199   1.402   1_455  A
C199        C200   1.400       .  A
C199        H203   1.084       .  S
C200        O784   1.372       .  S
O202        H206   0.991       .  S
O204        C780   1.372       .  S
O204        H205   0.991       .  S
C207        C208   1.403       .  A
C207        C212   1.408       .  A
C208        C209   1.401       .  A
C208        H213   1.084       .  S
C209        C210   1.412       .  A
C209        O794   1.372       .  S
C210        C211   1.403       .  A
C210        C609   1.479       .  S
C211        C212   1.398       .  A
C211        H215   1.083       .  S
C212        O216   1.372       .  S
O214        C789   1.372       .  S
O214        H798   0.992       .  S
O216        H217   0.992       .  S
H218        O794   0.992       .  S
C219        C220   1.406       .  A
C219        C224   1.410       .  A
C219        C315   1.480   1_545  S
C220        C221   1.400       .  A
C220        H225   1.083       .  S
C221        C222   1.406       .  A
C221        O226   1.372       .  S
C222        C223   1.406       .  A
C223        C224   1.400       .  A
C223        H227   1.084       .  S
C224        O808   1.372   1_455  S
O226        H230   0.991       .  S
O228        C804   1.372       .  S
O228        H229   0.992       .  S
C231        C232   1.404       .  A
C231        C236   1.409       .  A
C232        C233   1.395   1_556  A
C232        H237   1.084       .  S
C233        C234   1.413       .  A
C233        O238   1.372       .  S
C234        C235   1.407       .  A
C235        C236   1.404   1_554  A
C235        H239   1.083       .  S
C236        O240   1.373       .  S
O238        H242   0.992       .  S
O240        H241   0.992       .  S
C243        C244   1.407       .  A
C243        C248   1.410       .  A
C244        C245   1.400       .  A
C244        H249   1.083       .  S
C245        C246   1.406       .  A
C245        O250   1.372       .  S
C246        C247   1.403       .  A
C247        C248   1.396       .  A
C247        H251   1.084       .  S
C248        O252   1.372       .  S
O250        H254   0.992       .  S
O252        H253   0.992       .  S
C255        C256   1.403       .  A
C255        C260   1.410       .  A
C256        C257   1.395   1_556  A
C256        H261   1.084   1_545  S
C257        C258   1.411       .  A
C257        O262   1.371   1_545  S
C258        C259   1.405       .  A
C259        C260   1.405   1_554  A
C259        H263   1.083       .  S
C260        O264   1.373       .  S
O262        H266   0.992       .  S
O264        H555   0.992       .  S
H265        O554   0.992       .  S
C267        C268   1.405       .  A
C267        C562   1.407       .  A
C268        C269   1.399       .  A
C268        H273   1.084       .  S
C269        C270   1.410       .  A
C269        O274   1.372       .  S
C270        C271   1.403       .  A
C271        C562   1.397       .  A
C271        H565   1.084       .  S
C272        C557   1.407   1_545  A
C272        C561   1.397       .  A
C272        O276   1.372       .  S
O274        H278   0.992       .  S
H275        C561   1.084       .  S
O276        H277   0.992       .  S
C279        C280   1.406       .  A
C279        C284   1.411       .  A
C280        C281   1.407       .  A
C280        H285   1.083       .  S
C281        C282   1.414       .  A
C281        O286   1.372       .  S
C282        C283   1.407       .  A
C283        C284   1.392       .  A
C283        H287   1.082       .  S
C284        O288   1.373       .  S
O286        H290   0.992       .  S
O288        H289   0.992       .  S
C291        C292   1.406       .  A
C291        C557   1.479       .  S
C292        C293   1.406       .  A
C292        H297   1.083       .  S
C293        C569   1.492       .  S
C294        C295   1.401       .  A
C294        H298   1.080       .  S
C295        C296   1.401       .  A
C295        C545   1.484       .  S
C296        H299   1.084       .  S
C300        C301   1.402       .  A
C300        C305   1.406       .  A
C300        C536   1.476       .  S
C301        C302   1.398       .  A
C301        H306   1.084       .  S
C302        C303   1.401       .  A
C302        C521   1.486       .  S
C303        C304   1.410       .  A
C303        H307   1.080       .  S
C304        C305   1.409       .  A
C304        C572   1.499       .  S
C305        H308   1.081       .  S
In309       O311   2.234       .  S
In309       O312   2.241       .  S
In309       O900   2.247   1_455  S
In309       O894   2.240   1_455  S
In309       O316   2.242       .  S
In309       O317   2.250       .  S
In309       O318   2.250       .  S
In309       O321   2.232       .  S
C310        C533   1.478       .  S
C310        O316   1.258       .  A
C310        O318   1.258       .  A
O311        C319   1.260       .  A
O312        C319   1.263       .  A
C313        C560   1.475       .  S
C313        O320   1.258       .  A
C313        O314   1.259       .  A
O314       In889   2.240       .  S
C315        O317   1.263       .  A
C315        O321   1.260       .  A
C319       C1080   1.478       .  S
O320       In889   2.247       .  S
C322        C323   1.407       .  A
C322        C327   1.406       .  A
C322        C497   1.479       .  S
C323        C324   1.403       .  A
C323        H328   1.084       .  S
C324        C325   1.401       .  A
C324       C1065   1.476       .  S
C325        C326   1.401       .  A
C325        H329   1.084       .  S
C326        C327   1.402       .  A
C326        C473   1.484       .  S
C327        H330   1.083       .  S
C331        C332   1.408       .  A
C331        C336   1.405       .  A
C331        C512   1.482       .  S
C332        C333   1.403       .  A
C332        H337   1.083       .  S
C333        C334   1.402       .  A
C333        C488   1.476       .  S
C334        C335   1.402       .  A
C334        H338   1.084       .  S
C335        C336   1.402       .  A
C335        C461   1.484       .  S
C336        H339   1.084       .  S
C340        C341   1.407       .  A
C340        C345   1.408       .  A
C340        C437   1.485       .  S
C341        C342   1.401       .  A
C341        H346   1.084       .  S
C342        C343   1.402       .  A
C342        C476   1.484       .  S
C343        C344   1.404       .  A
C343        H347   1.084       .  S
C344        C345   1.403       .  A
C344       C1029   1.481       .  S
C345        H348   1.083       .  S
C349        C350   1.409       .  A
C349        C354   1.406       .  A
C349        C428   1.481       .  S
C350        C351   1.404       .  A
C350        H355   1.083       .  S
C351        C352   1.400       .  A
C351        C452   1.475       .  S
C352        C353   1.400       .  A
C352        H356   1.085       .  S
C353        C354   1.402       .  A
C353        C464   1.482       .  S
C354        H357   1.084       .  S
In358       O360   2.262       .  S
In358       O361   2.235       .  S
In358       O949   2.248   1_455  S
In358       O943   2.237   1_455  S
In358       O365   2.252       .  S
In358       O366   2.256       .  S
In358       O367   2.232       .  S
In358       O370   2.234       .  S
C359        C413   1.480       .  S
C359        O365   1.261       .  A
C359        O367   1.259       .  A
O360        C368   1.261       .  A
O361        C368   1.260       .  A
C362        C404   1.477       .  S
C362        O369   1.259       .  A
C362        O363   1.260       .  A
O363       In938   2.237       .  S
C364       C1020   1.481       .  S
C364        O366   1.260       .  A
C364        O370   1.259       .  A
O369       In938   2.248       .  S
C371        C376   1.402       .  A
C372        C373   1.408       .  A
C372        H377   1.083       .  S
C373        C392   1.499       .  S
C374        C375   1.403       .  A
C374        H378   1.081       .  S
C375        C376   1.399       .  A
C375        C548   1.486       .  S
C376        H379   1.084       .  S
C380        C381   1.406       .  A
C380        C385   1.403       .  A
C380        C416   1.476       .  S
C381        C382   1.407       .  A
C381        H386   1.082       .  S
C382        C383   1.409       .  A
C382        C389   1.498       .  S
C383        C384   1.403       .  A
C383        H387   1.082       .  S
C384        C385   1.399       .  A
C384        C524   1.491       .  S
C385        H388   1.083       .  S
C389        C390   1.405       .  A
C389        C394   1.413       .  A
C390        C391   1.392       .  A
C390        H395   1.082       .  S
C391        C392   1.413       .  A
C391        O396   1.373       .  S
C392        C393   1.410       .  A
C393        C394   1.410       .  A
C393        H397   1.083       .  S
C394        O398   1.372       .  S
O396        H400   0.992       .  S
O398        H399   0.992       .  S
C401        C402   1.402       .  A
C401        C406   1.408       .  A
C402        C403   1.401       .  A
C402        H407   1.084       .  S
C403        C404   1.412       .  A
C403        O408   1.371       .  S
C404        C405   1.403       .  A
C405        C406   1.396       .  A
C405        H409   1.084       .  S
O408        H412   0.992       .  S
O410        H411   0.992       .  S
C413        C414   1.407       .  A
C413        C418   1.412       .  A
C414        C415   1.401       .  A
C414        H419   1.083       .  S
C415        C416   1.406       .  A
C415        O420   1.371       .  S
C416        C417   1.402       .  A
C417        C418   1.396       .  A
C417        H421   1.084       .  S
C418        O422   1.372       .  S
O420        H424   0.992       .  S
O422        H423   0.992       .  S
C425        C426   1.404       .  A
C425        C430   1.413       .  A
C426        C427   1.396       .  A
C426        H431   1.083   1_455  S
C427        C428   1.407       .  A
C427        O432   1.372   1_455  S
C428        C429   1.403       .  A
C429        C430   1.405       .  A
C429        H433   1.084       .  S
C430        O434   1.371       .  S
O432       H1016   0.992       .  S
O434        H435   0.992       .  S
H436       O1012   0.992       .  S
C437       C1018   1.404       .  A
C437        C442   1.410       .  A
C438       C1017   1.404   1_455  A
C438        C439   1.396       .  A
C438        H443   1.084       .  S
C439       C1020   1.410       .  A
C439        O444   1.372       .  S
C440       C1019   1.410       .  A
C440        C441   1.406       .  A
C440        C944   1.481       .  S
C441        C442   1.402       .  A
C441        H445   1.083       .  S
C442        O446   1.372       .  S
O444        H448   0.992       .  S
O446        H447   0.992       .  S
C449        C450   1.404   1_655  A
C449       C1034   1.408       .  A
C449        C924   1.481       .  S
C450        C451   1.401       .  A
C450        H455   1.084       .  S
C451        C452   1.406       .  A
C451        O456   1.371       .  S
C452        C453   1.402   1_455  A
C453       C1034   1.401       .  A
C453        H457   1.084       .  S
C454       C1029   1.408       .  A
C454       C1033   1.401       .  A
C454        O458   1.373       .  S
O456        H460   0.991       .  S
O458        H459   0.992       .  S
C461        C462   1.404       .  A
C461        C466   1.411       .  A
C462        C463   1.397       .  A
C462        H467   1.083       .  S
C463        C464   1.409       .  A
C463        O468   1.372       .  S
C464        C465   1.405       .  A
C465        C466   1.401       .  A
C465        H469   1.084       .  S
C466        O470   1.372       .  S
O468        H472   0.992   1_455  S
O470        H471   0.992       .  S
C473        C474   1.405       .  A
C473        C478   1.411       .  A
C474        C475   1.400       .  A
C474        H479   1.084       .  S
C475        C476   1.409       .  A
C475        O480   1.371       .  S
C476        C477   1.405       .  A
C477        C478   1.399       .  A
C477       H1061   1.084       .  S
C478       O1062   1.372       .  S
O480        H484   0.992       .  S
H481       C1057   1.084   1_455  S
O482       C1058   1.372   1_455  S
O482        H483   0.992       .  S
C485        C486   1.402       .  A
C485        C490   1.408   1_455  A
C485        C904   1.476   1_455  S
C486        C487   1.400       .  A
C486        H491   1.084       .  S
C487        C488   1.407       .  A
C487        O492   1.372       .  S
C488        C489   1.403   1_455  A
C489        C490   1.400       .  A
C489        H493   1.084       .  S
C490       O1074   1.371       .  S
O492        H496   0.992       .  S
O494       C1070   1.371       .  S
O494        H495   0.991       .  S
C497        C498   1.402       .  A
C497        C502   1.408       .  A
C498        C499   1.401       .  A
C498        H503   1.084       .  S
C499        C500   1.413       .  A
C499       O1084   1.372       .  S
C500        C501   1.403       .  A
C500        C899   1.478       .  S
C501        C502   1.398       .  A
C501        H505   1.083       .  S
C502        O506   1.372       .  S
O504       C1079   1.372       .  S
O504       H1088   0.992       .  S
O506        H507   0.992       .  S
H508       O1084   0.992       .  S
C509        C510   1.406       .  A
C509        C514   1.410       .  A
C510        C511   1.400       .  A
C510        H515   1.083       .  S
C511        C512   1.407       .  A
C511        O516   1.372       .  S
C512        C513   1.406       .  A
C513        C514   1.400       .  A
C513        H517   1.084       .  S
C514       O1098   1.372   1_455  S
O516        H520   0.991       .  S
O518       C1094   1.372       .  S
O518        H519   0.992       .  S
C521        C522   1.404       .  A
C521        C526   1.409       .  A
C522        C523   1.396   1_556  A
C522        H527   1.084       .  S
C523        C524   1.413       .  A
C523        O528   1.371       .  S
C524        C525   1.407       .  A
C525        C526   1.404   1_554  A
C525        H529   1.083       .  S
C526        O530   1.374       .  S
O528        H532   0.992       .  S
O530        H531   0.992       .  S
C533        C534   1.407       .  A
C533        C538   1.410       .  A
C534        C535   1.400       .  A
C534        H539   1.083       .  S
C535        C536   1.406       .  A
C535        O540   1.372       .  S
C536        C537   1.402       .  A
C537        C538   1.396       .  A
C537        H541   1.084       .  S
C538        O542   1.372       .  S
O540        H544   0.992       .  S
O542        H543   0.992       .  S
C545        C546   1.403       .  A
C545        C550   1.410       .  A
C546        C547   1.395   1_556  A
C546        H551   1.084       .  S
C547        C548   1.412       .  A
C547        O552   1.371       .  S
C548        C549   1.406       .  A
C549        C550   1.405   1_554  A
C549        H553   1.083       .  S
C550        O554   1.373       .  S
O552        H556   0.992       .  S
C557        C558   1.404       .  A
C558        C559   1.400       .  A
C558        H563   1.084       .  S
C559        C560   1.410       .  A
C559        O564   1.372       .  S
C560        C561   1.403   1_565  A
C562        O566   1.372       .  S
O564        H568   0.992       .  S
O566        H567   0.992       .  S
C569        C570   1.407       .  A
C569        C574   1.411       .  A
C570        C571   1.408       .  A
C570        H575   1.083       .  S
C571        C572   1.415       .  A
C571        O576   1.371       .  S
C572        C573   1.407       .  A
C573        C574   1.392       .  A
C573        H577   1.082       .  S
C574        O578   1.373       .  S
O576        H580   0.992       .  S
O578        H579   0.992       .  S
C581        C582   1.406       .  A
C581        C876   1.405       .  A
C581        C847   1.479       .  S
C582        C583   1.405       .  A
C582        H587   1.083       .  S
C583        C874   1.404       .  A
C583        C859   1.491       .  S
C584        C873   1.404   1_545  A
C584        C585   1.400       .  A
C584        H588   1.080       .  S
C585        C586   1.401       .  A
C585        C835   1.484       .  S
C586        C871   1.405   1_545  A
C586        H589   1.084       .  S
C590        C591   1.401       .  A
C590        C595   1.405       .  A
C590        C826   1.475       .  S
C591        C592   1.398       .  A
C591        H596   1.084       .  S
C592        C593   1.401       .  A
C592        C811   1.485       .  S
C593        C594   1.410       .  A
C593        H597   1.080       .  S
C594        C595   1.408       .  A
C594        C862   1.498       .  S
C595        H598   1.081       .  S
In599       O601   2.238       .  S
In599       O602   2.240       .  S
In599       O606   2.243       .  S
In599       O607   2.250       .  S
In599       O608   2.247       .  S
In599       O611   2.232       .  S
C600        C823   1.477       .  S
C600        O606   1.258       .  A
C600        O608   1.258       .  A
O601        C609   1.260       .  A
O602        C609   1.263       .  A
C603        C850   1.474       .  S
C603        O610   1.258       .  A
C603        O604   1.259       .  A
C605       C1089   1.480       .  S
C605        O607   1.263       .  A
C605        O611   1.260       .  A
C612        C613   1.407       .  A
C612        C617   1.407       .  A
C612        C787   1.479   1_655  S
C613        C614   1.402       .  A
C613        H618   1.084   1_655  S
C614        C615   1.400       .  A
C615        C616   1.400       .  A
C615        H619   1.085       .  S
C616        C617   1.403       .  A
C616        C763   1.484       .  S
C617        H620   1.083       .  S
C621        C622   1.408       .  A
C621        C626   1.404       .  A
C621        C802   1.481       .  S
C622        C623   1.403       .  A
C622        H627   1.083       .  S
C623        C624   1.402       .  A
C623        C778   1.475       .  S
C624        C625   1.402       .  A
C624        H628   1.084       .  S
C625        C626   1.401       .  A
C625        C751   1.483       .  S
C626        H629   1.084       .  S
C630        C631   1.406       .  A
C630        C635   1.407       .  A
C630        C727   1.485       .  S
C631        C632   1.400       .  A
C631        H636   1.084       .  S
C632        C633   1.402       .  A
C632        C766   1.484       .  S
C633        C634   1.404       .  A
C633        H637   1.084       .  S
C634        C635   1.403       .  A
C635        H638   1.083   1_655  S
C639        C640   1.408       .  A
C639        C644   1.406       .  A
C639        C718   1.479       .  S
C640        C641   1.404       .  A
C640        H645   1.084       .  S
C641        C642   1.400       .  A
C641        C742   1.474       .  S
C642        C643   1.399       .  A
C642        H646   1.085       .  S
C643        C644   1.402       .  A
C643        C754   1.482       .  S
C644        H647   1.084       .  S
In648       O650   2.264       .  S
In648       O651   2.234       .  S
In648       O655   2.249       .  S
In648       O656   2.256       .  S
In648       O657   2.236       .  S
In648       O660   2.233       .  S
C649        C703   1.480       .  S
C649        O655   1.261       .  A
C649        O657   1.260       .  A
O650        C658   1.261       .  A
O651        C658   1.260       .  A
C652        C694   1.478       .  S
C652        O659   1.259       .  A
C652        O653   1.260       .  A
C654        O656   1.260       .  A
C654        O660   1.259       .  A
C658       C1005   1.483       .  S
C661        C952   1.405       .  A
C661        C666   1.403   1_565  A
C661        C981   1.477       .  S
C662        C951   1.405       .  A
C662        C663   1.408       .  A
C662        H667   1.083       .  S
C663        C954   1.409       .  A
C663        C682   1.498       .  S
C664        C953   1.409   1_545  A
C664        C665   1.402       .  A
C664        H668   1.081       .  S
C665        C666   1.398       .  A
C665        C838   1.485       .  S
C666        H669   1.084       .  S
C670        C671   1.406       .  A
C670        C675   1.401       .  A
C670        C706   1.474       .  S
C671        C672   1.408       .  A
C671        H676   1.082       .  S
C672        C673   1.409       .  A
C672        C679   1.499       .  S
C673        C674   1.402       .  A
C673        H677   1.082       .  S
C674        C675   1.399       .  A
C674        C814   1.488       .  S
C675        H678   1.084       .  S
C679        C680   1.406       .  A
C679        C684   1.413       .  A
C680        C681   1.393       .  A
C680        H685   1.082       .  S
C681        C682   1.413       .  A
C681        O686   1.372       .  S
C682        C683   1.410       .  A
C683        C684   1.409       .  A
C683        H687   1.083       .  S
C684        O688   1.372       .  S
O686        H690   0.992       .  S
O688        H689   0.992       .  S
C691        C692   1.402       .  A
C691        C696   1.408       .  A
C691        C951   1.477       .  S
C692        C693   1.401       .  A
C692        H697   1.084       .  S
C693        C694   1.412       .  A
C693        O698   1.371       .  S
C694        C695   1.403       .  A
C695        C696   1.396       .  A
C695        H699   1.084       .  S
C696        O990   1.372       .  S
O698        H702   0.992       .  S
O700        C986   1.372       .  S
O700        H701   0.992       .  S
C703        C704   1.407       .  A
C703        C708   1.412       .  A
C704        C705   1.401       .  A
C704        H709   1.083       .  S
C705        C706   1.404       .  A
C705        O710   1.371       .  S
C706        C707   1.401       .  A
C707        C708   1.397       .  A
C707        H711   1.084       .  S
C708        O712   1.372       .  S
O710        H714   0.992       .  S
O712        H713   0.992       .  S
C715        C716   1.405       .  A
C715        C720   1.413       .  A
C715        C948   1.482   1_545  S
C716        C717   1.396       .  A
C716        H721   1.083       .  S
C717        C718   1.407       .  A
C717        O722   1.372       .  S
C718        C719   1.403       .  A
C719        C720   1.405       .  A
C719        H723   1.084       .  S
C720        O724   1.371       .  S
O724        H725   0.992       .  S
C727        C732   1.410       .  A
C728        C729   1.396       .  A
C728        H733   1.084       .  S
C729        O734   1.372       .  S
C730        C731   1.406   1_455  A
C731        C732   1.402       .  A
C731        H735   1.083       .  S
C732        O736   1.371       .  S
O734        H738   0.992       .  S
O736        H737   0.992       .  S
C739        C740   1.405       .  A
C740        C741   1.401       .  A
C740        H745   1.084       .  S
C741        C742   1.406       .  A
C741        O746   1.371       .  S
C742        C743   1.402       .  A
C743        H747   1.084       .  S
C744        O748   1.373       .  S
O746        H750   0.991       .  S
O748        H749   0.992       .  S
C751        C752   1.404       .  A
C751        C756   1.410       .  A
C752        C753   1.396       .  A
C752        H757   1.084       .  S
C753        C754   1.409       .  A
C753        O758   1.372       .  S
C754        C755   1.406       .  A
C755        C756   1.401       .  A
C755        H759   1.084       .  S
C756        O760   1.372       .  S
O758        H762   0.992       .  S
O760        H761   0.992       .  S
C763        C764   1.406       .  A
C763        C768   1.410       .  A
C764        C765   1.399       .  A
C764        H769   1.084       .  S
C765        C766   1.408       .  A
C765        O770   1.371       .  S
C766        C767   1.405       .  A
C767        C768   1.399       .  A
O770        H774   0.992       .  S
O772        H773   0.992       .  S
C775        C776   1.403       .  A
C775        C780   1.409       .  A
C776        C777   1.401       .  A
C776        H781   1.084       .  S
C777        C778   1.407       .  A
C777        O782   1.372       .  S
C778        C779   1.402       .  A
C779        C780   1.400       .  A
C779        H783   1.084       .  S
O782        H786   0.991       .  S
O784        H785   0.991       .  S
C787        C788   1.403   1_455  A
C787        C792   1.408       .  A
C788        C789   1.401       .  A
C788        H793   1.084       .  S
C789        C790   1.412   1_655  A
C790        C791   1.403       .  A
C791        C792   1.398       .  A
C791        H795   1.083       .  S
C792        O796   1.372       .  S
O796        H797   0.992       .  S
C799        C800   1.406       .  A
C799        C804   1.410       .  A
C799        C895   1.480   1_545  S
C800        C801   1.400       .  A
C800        H805   1.083       .  S
C801        C802   1.406       .  A
C801        O806   1.372       .  S
C802        C803   1.406       .  A
C803        C804   1.400       .  A
C803        H807   1.084       .  S
O806        H810   0.991       .  S
O808        H809   0.992       .  S
C811        C812   1.404       .  A
C811        C816   1.409       .  A
C812        C813   1.395   1_556  A
C812        H817   1.084       .  S
C813        C814   1.413       .  A
C813        O818   1.372       .  S
C814        C815   1.407       .  A
C815        C816   1.404   1_554  A
C815        H819   1.083       .  S
C816        O820   1.373       .  S
O818        H822   0.992       .  S
O820        H821   0.992       .  S
C823        C824   1.407       .  A
C823        C828   1.410       .  A
C824        C825   1.400       .  A
C824        H829   1.083       .  S
C825        C826   1.406       .  A
C825        O830   1.372       .  S
C826        C827   1.403       .  A
C827        C828   1.396       .  A
C827        H831   1.084       .  S
C828        O832   1.372       .  S
O830        H834   0.992       .  S
O832        H833   0.992       .  S
C835        C836   1.403       .  A
C835        C840   1.410       .  A
C836        C837   1.395   1_556  A
C836        H841   1.084   1_545  S
C837        C838   1.411       .  A
C837        O842   1.371   1_545  S
C838        C839   1.405       .  A
C839        C840   1.405   1_554  A
C839        H843   1.083       .  S
C840        O844   1.373       .  S
O842        H846   0.992       .  S
O844       H1135   0.992       .  S
H845       O1134   0.992       .  S
C847        C848   1.405       .  A
C847       C1142   1.407       .  A
C848        C849   1.399       .  A
C848        H853   1.084       .  S
C849        C850   1.410       .  A
C849        O854   1.372       .  S
C850        C851   1.403       .  A
C851       C1142   1.397       .  A
C851       H1145   1.084       .  S
C852       C1137   1.407   1_545  A
C852       C1141   1.397       .  A
C852        O856   1.372       .  S
O854        H858   0.992       .  S
H855       C1141   1.084       .  S
O856        H857   0.992       .  S
C859        C860   1.406       .  A
C859        C864   1.411       .  A
C860        C861   1.407       .  A
C860        H865   1.083       .  S
C861        C862   1.414       .  A
C861        O866   1.372       .  S
C862        C863   1.407       .  A
C863        C864   1.392       .  A
C863        H867   1.082       .  S
C864        O868   1.373       .  S
O866        H870   0.992       .  S
O868        H869   0.992       .  S
C871        C872   1.406       .  A
C871       C1137   1.479       .  S
C872        C873   1.406       .  A
C872        H877   1.083       .  S
C873       C1149   1.492       .  S
C874        C875   1.401       .  A
C874        H878   1.080       .  S
C875        C876   1.401       .  A
C875       C1125   1.484       .  S
C876        H879   1.084       .  S
C880        C881   1.402       .  A
C880        C885   1.406       .  A
C880       C1116   1.476       .  S
C881        C882   1.398       .  A
C881        H886   1.084       .  S
C882        C883   1.401       .  A
C882       C1101   1.486       .  S
C883        C884   1.410       .  A
C883        H887   1.080       .  S
C884        C885   1.409       .  A
C884       C1152   1.499       .  S
C885        H888   1.081       .  S
In889       O891   2.234       .  S
In889       O892   2.241       .  S
In889       O896   2.242       .  S
In889       O897   2.250       .  S
In889       O898   2.250       .  S
In889       O901   2.232       .  S
C890       C1113   1.478       .  S
C890        O896   1.258       .  A
C890        O898   1.258       .  A
O891        C899   1.260       .  A
O892        C899   1.263       .  A
C893       C1140   1.475       .  S
C893        O900   1.258       .  A
C893        O894   1.259       .  A
C895        O897   1.263       .  A
C895        O901   1.260       .  A
C902        C903   1.407   1_655  A
C902        C907   1.406       .  A
C902       C1077   1.479   1_655  S
C903        C904   1.403   1_455  A
C903        H908   1.084       .  S
C904        C905   1.401       .  A
C905        C906   1.401       .  A
C905        H909   1.084       .  S
C906        C907   1.402       .  A
C906       C1053   1.484       .  S
C907        H910   1.083       .  S
C911        C912   1.408       .  A
C911        C916   1.405       .  A
C911       C1092   1.482       .  S
C912        C913   1.403       .  A
C912        H917   1.083       .  S
C913        C914   1.402       .  A
C913       C1068   1.476       .  S
C914        C915   1.402       .  A
C914        H918   1.084       .  S
C915        C916   1.402       .  A
C915       C1041   1.484       .  S
C916        H919   1.084       .  S
C920        C921   1.407       .  A
C920        C925   1.408       .  A
C920       C1017   1.485       .  S
C921        C922   1.401       .  A
C921        H926   1.084       .  S
C922        C923   1.402       .  A
C922       C1056   1.484       .  S
C923        C924   1.404       .  A
C923        H927   1.084       .  S
C924        C925   1.403       .  A
C925        H928   1.083   1_655  S
C929        C930   1.409       .  A
C929        C934   1.406       .  A
C929       C1008   1.481       .  S
C930        C931   1.404       .  A
C930        H935   1.083       .  S
C931        C932   1.400       .  A
C931       C1032   1.475       .  S
C932        C933   1.400       .  A
C932        H936   1.085       .  S
C933        C934   1.402       .  A
C933       C1044   1.482       .  S
C934        H937   1.084       .  S
In938       O940   2.262       .  S
In938       O941   2.235       .  S
In938       O945   2.252       .  S
In938       O946   2.256       .  S
In938       O947   2.232       .  S
In938       O950   2.234       .  S
C939        C993   1.480       .  S
C939        O945   1.261       .  A
C939        O947   1.259       .  A
O940        C948   1.261       .  A
O941        C948   1.260       .  A
C942        C984   1.477       .  S
C942        O949   1.259       .  A
C942        O943   1.260       .  A
C944        O946   1.260       .  A
C944        O950   1.259       .  A
C951        C956   1.402       .  A
C952        C953   1.408       .  A
C952        H957   1.083       .  S
C953        C972   1.499       .  S
C954        C955   1.403       .  A
C954        H958   1.081       .  S
C955        C956   1.399       .  A
C955       C1128   1.486       .  S
C956        H959   1.084       .  S
C960        C961   1.406       .  A
C960        C965   1.403       .  A
C960        C996   1.476       .  S
C961        C962   1.407       .  A
C961        H966   1.082       .  S
C962        C963   1.409       .  A
C962        C969   1.498       .  S
C963        C964   1.403       .  A
C963        H967   1.082       .  S
C964        C965   1.399       .  A
C964       C1104   1.491       .  S
C965        H968   1.083       .  S
C969        C970   1.405       .  A
C969        C974   1.413       .  A
C970        C971   1.392       .  A
C970        H975   1.082       .  S
C971        C972   1.413       .  A
C971        O976   1.373       .  S
C972        C973   1.410       .  A
C973        C974   1.410       .  A
C973        H977   1.083       .  S
C974        O978   1.372       .  S
O976        H980   0.992       .  S
O978        H979   0.992       .  S
C981        C982   1.402       .  A
C981        C986   1.408       .  A
C982        C983   1.401       .  A
C982        H987   1.084       .  S
C983        C984   1.412       .  A
C983        O988   1.371       .  S
C984        C985   1.403       .  A
C985        C986   1.396       .  A
C985        H989   1.084       .  S
O988        H992   0.992       .  S
O990        H991   0.992       .  S
C993        C994   1.407       .  A
C993        C998   1.412       .  A
C994        C995   1.401       .  A
C994        H999   1.083       .  S
C995        C996   1.406       .  A
C995       O1000   1.371       .  S
C996        C997   1.402       .  A
C997        C998   1.396       .  A
C997       H1001   1.084       .  S
C998       O1002   1.372       .  S
O1000      H1004   0.992       .  S
O1002      H1003   0.992       .  S
C1005      C1006   1.404       .  A
C1005      C1010   1.413       .  A
C1006      C1007   1.396       .  A
C1006      H1011   1.083       .  S
C1007      C1008   1.407       .  A
C1007      O1012   1.372       .  S
C1008      C1009   1.403       .  A
C1009      C1010   1.405       .  A
C1009      H1013   1.084       .  S
C1010      O1014   1.371       .  S
O1014      H1015   0.992       .  S
C1017      C1022   1.410       .  A
C1018      C1019   1.396       .  A
C1018      H1023   1.084       .  S
C1019      O1024   1.372       .  S
C1020      C1021   1.406   1_455  A
C1021      C1022   1.402       .  A
C1021      H1025   1.083       .  S
C1022      O1026   1.372       .  S
O1024      H1028   0.992       .  S
O1026      H1027   0.992       .  S
C1029      C1030   1.404       .  A
C1030      C1031   1.401       .  A
C1030      H1035   1.084       .  S
C1031      C1032   1.406       .  A
C1031      O1036   1.371       .  S
C1032      C1033   1.402       .  A
C1033      H1037   1.084       .  S
C1034      O1038   1.373       .  S
O1036      H1040   0.991       .  S
O1038      H1039   0.992       .  S
C1041      C1042   1.404       .  A
C1041      C1046   1.411       .  A
C1042      C1043   1.397       .  A
C1042      H1047   1.083       .  S
C1043      C1044   1.409       .  A
C1043      O1048   1.372       .  S
C1044      C1045   1.405       .  A
C1045      C1046   1.401       .  A
C1045      H1049   1.084       .  S
C1046      O1050   1.372       .  S
O1048      H1052   0.992       .  S
O1050      H1051   0.992       .  S
C1053      C1054   1.405       .  A
C1053      C1058   1.411       .  A
C1054      C1055   1.400       .  A
C1054      H1059   1.084       .  S
C1055      C1056   1.409       .  A
C1055      O1060   1.371       .  S
C1056      C1057   1.405       .  A
C1057      C1058   1.399       .  A
O1060      H1064   0.992       .  S
O1062      H1063   0.992       .  S
C1065      C1066   1.402       .  A
C1065      C1070   1.408       .  A
C1066      C1067   1.400       .  A
C1066      H1071   1.084       .  S
C1067      C1068   1.407       .  A
C1067      O1072   1.372       .  S
C1068      C1069   1.403       .  A
C1069      C1070   1.400       .  A
C1069      H1073   1.084       .  S
O1072      H1076   0.992       .  S
O1074      H1075   0.991       .  S
C1077      C1078   1.402   1_455  A
C1077      C1082   1.408       .  A
C1078      C1079   1.401       .  A
C1078      H1083   1.084       .  S
C1079      C1080   1.413   1_655  A
C1080      C1081   1.403       .  A
C1081      C1082   1.398       .  A
C1081      H1085   1.084       .  S
C1082      O1086   1.372       .  S
O1086      H1087   0.992       .  S
C1089      C1090   1.406       .  A
C1089      C1094   1.410       .  A
C1090      C1091   1.400       .  A
C1090      H1095   1.083       .  S
C1091      C1092   1.407       .  A
C1091      O1096   1.372       .  S
C1092      C1093   1.406       .  A
C1093      C1094   1.400       .  A
C1093      H1097   1.084       .  S
O1096      H1100   0.991       .  S
O1098      H1099   0.992       .  S
C1101      C1102   1.404       .  A
C1101      C1106   1.409       .  A
C1102      C1103   1.396   1_556  A
C1102      H1107   1.084       .  S
C1103      C1104   1.413       .  A
C1103      O1108   1.371       .  S
C1104      C1105   1.407       .  A
C1105      C1106   1.404   1_554  A
C1105      H1109   1.083       .  S
C1106      O1110   1.374       .  S
O1108      H1112   0.992       .  S
O1110      H1111   0.992       .  S
C1113      C1114   1.407       .  A
C1113      C1118   1.410       .  A
C1114      C1115   1.400       .  A
C1114      H1119   1.083       .  S
C1115      C1116   1.406       .  A
C1115      O1120   1.372       .  S
C1116      C1117   1.402       .  A
C1117      C1118   1.396       .  A
C1117      H1121   1.084       .  S
C1118      O1122   1.372       .  S
O1120      H1124   0.992       .  S
O1122      H1123   0.992       .  S
C1125      C1126   1.403       .  A
C1125      C1130   1.410       .  A
C1126      C1127   1.395   1_556  A
C1126      H1131   1.084       .  S
C1127      C1128   1.412       .  A
C1127      O1132   1.371       .  S
C1128      C1129   1.406       .  A
C1129      C1130   1.405   1_554  A
C1129      H1133   1.083       .  S
C1130      O1134   1.373       .  S
O1132      H1136   0.992       .  S
C1137      C1138   1.404       .  A
C1138      C1139   1.400       .  A
C1138      H1143   1.084       .  S
C1139      C1140   1.410       .  A
C1139      O1144   1.372       .  S
C1140      C1141   1.403   1_565  A
C1142      O1146   1.372       .  S
O1144      H1148   0.991       .  S
O1146      H1147   0.992       .  S
C1149      C1150   1.407       .  A
C1149      C1154   1.411       .  A
C1150      C1151   1.408       .  A
C1150      H1155   1.083       .  S
C1151      C1152   1.415       .  A
C1151      O1156   1.371       .  S
C1152      C1153   1.407       .  A
C1153      C1154   1.392       .  A
C1153      H1157   1.082       .  S
C1154      O1158   1.373       .  S
O1156      H1160   0.992       .  S
O1158      H1159   0.992       .  S
