geometry optimzed in LAMMPS
_audit_creation_date              2020-12-01 
_audit_creation_method            'lammps2cif' 
_symmetry_space_group_name_H-M    'P1' 
_symmetry_Int_Tables_number       1 
_symmetry_cell_setting            triclinic 
loop_ 
_symmetry_equiv_pos_as_xyz 
  x,y,z 
_cell_length_a                    27.15945801 
_cell_length_b                    27.238481690417334 
_cell_length_c                    27.268955973275137 
_cell_angle_alpha                 90.15101529300287 
_cell_angle_beta                  89.73923915468221 
_cell_angle_gamma                 90.34470918980197 
loop_ 
_atom_site_label 
_atom_site_type_symbol 
_atom_site_fract_x 
_atom_site_fract_y 
_atom_site_fract_z 
_atom_site_charge 
C1          C  0.09336756  0.85779438  0.54786414     0.03800
C2          C  0.06802339  0.84729149  0.50341697     0.03800
C3          C  0.08956951  0.86556568  0.45928133     0.03800
C4          C  0.12363834  0.90623683  0.46160121     0.03800
C5          C  0.13478122  0.92716940  0.50825422     0.03800
C6          C  0.12762301  0.89748974  0.54989730     0.03800
C7          C  0.13607642  0.09256000  0.54527702     0.03800
C8          C  0.14519730  0.07061842  0.49891470     0.03800
C9          C  0.13435388  0.09869808  0.45691237     0.03800
C10         C  0.09851931  0.13659126  0.45949851     0.03800
C11         C  0.07726129  0.14783232  0.50584376     0.03800
C12         C  0.10344764  0.13321681  0.54807795     0.03800
C13         C  0.87508809  0.09924479  0.54300163     0.03800
C14         C  0.91301136  0.13568224  0.53923466     0.03800
C15         C  0.93385000  0.14496091  0.49232632     0.03800
C16         C  0.90483932  0.13228076  0.45132018     0.03800
C17         C  0.87064221  0.09264870  0.45492287     0.03800
C18         C  0.86266625  0.07084977  0.50143314     0.03800
C19         C  0.92425580  0.86812607  0.54068127     0.03800
C20         C  0.94539387  0.84909870  0.49678758     0.03800
C21         C  0.91969942  0.85890086  0.45264945     0.03800
C22         C  0.88494045  0.89772332  0.45065007     0.03800
C23         C  0.87771252  0.92789477  0.49192659     0.03800
C24         C  0.88983152  0.90802393  0.53845671     0.03800
C25         C  0.55036037  0.10953447  0.08597266     0.03800
C26         C  0.50380833  0.12182199  0.06651646     0.03800
C27         C  0.46262266  0.11492511  0.09709195     0.03800
C28         C  0.46391066  0.08023765  0.13587415     0.03800
C29         C  0.50816056  0.05490468  0.14532358     0.03800
C30         C  0.55219664  0.07601975  0.12634787     0.03800
C31         C  0.55220930  0.12530884  0.89706610     0.03800
C32         C  0.51051776  0.13971456  0.92431602     0.03800
C33         C  0.46384711  0.13307746  0.90201685     0.03800
C34         C  0.45930548  0.10009325  0.86189090     0.03800
C35         C  0.49948036  0.06987160  0.84983523     0.03800
C36         C  0.54732540  0.08835346  0.86030373     0.03800
C37         C  0.46032706  0.87709813  0.08649764     0.03800
C38         C  0.46121778  0.91208083  0.12595858     0.03800
C39         C  0.50630007  0.93508634  0.13921653     0.03800
C40         C  0.55046194  0.91321323  0.12194003     0.03800
C41         C  0.54932101  0.87800572  0.08280883     0.03800
C42         C  0.50405340  0.86505299  0.06006858     0.03800
C43         C  0.55132569  0.90276392  0.86876623     0.03800
C44         C  0.50840928  0.92835745  0.85605914     0.03800
C45         C  0.46222307  0.90859657  0.87113616     0.03800
C46         C  0.46068272  0.87317210  0.90981763     0.03800
C47         C  0.50465371  0.85968348  0.93427204     0.03800
C48         C  0.54939004  0.86904404  0.90858959     0.03800
C49         C  0.10514555  0.44874027  0.88262986     0.03800
C50         C  0.07475274  0.48971304  0.87499979     0.03800
C51         C  0.09480532  0.53664450  0.88619749     0.03800
C52         C  0.13503602  0.53961521  0.92012733     0.03800
C53         C  0.15336761  0.49634457  0.94257989     0.03800
C54         C  0.14395664  0.45143801  0.91767437     0.03800
C55         C  0.10155657  0.44962077  0.12382586     0.03800
C56         C  0.14040886  0.45162188  0.08874334     0.03800
C57         C  0.15205438  0.49651362  0.06487051     0.03800
C58         C  0.13471121  0.54017326  0.08777717     0.03800
C59         C  0.09487983  0.53797948  0.12244717     0.03800
C60         C  0.07343752  0.49172595  0.13387591     0.03800
C61         C  0.90869205  0.45248670  0.12815535     0.03800
C62         C  0.92938938  0.50010404  0.13461699     0.03800
C63         C  0.89883305  0.54022407  0.12363271     0.03800
C64         C  0.86205525  0.53535868  0.08683643     0.03800
C65         C  0.85349011  0.48785008  0.06694489     0.03800
C66         C  0.86763670  0.44754239  0.09605724     0.03800
C67         C  0.86217829  0.54135324  0.89663170     0.03800
C68         C  0.90197736  0.54162434  0.86263665     0.03800
C69         C  0.93127351  0.49930089  0.85772286     0.03800
C70         C  0.90919311  0.45386202  0.87108216     0.03800
C71         C  0.86876699  0.45343616  0.90469572     0.03800
C72         C  0.85202766  0.49867112  0.92416043     0.03800
O73         O  0.12782305  0.94083352  0.81099664    -0.78700
O74         O  0.19344917  0.04922029  0.88113870    -0.78700
O75         O  0.24193943  0.89704172  0.83464767    -0.78700
O76         O  0.16641870  0.09707822  0.76783739    -0.78600
O77         O  0.19790198  0.94709095  0.88041804    -0.78800
O78         O  0.12131275  0.04520415  0.81056937    -0.78700
O79         O  0.23163556  0.10224117  0.83367179    -0.78700
O80         O  0.17679955  0.89148359  0.76941672    -0.78700
C81         C  0.13832109  0.89840451  0.79488589     1.11000
C82         C  0.20841318  0.09239793  0.87322483     1.10900
C83         C  0.21554659  0.90512672  0.87243695     1.11000
C84         C  0.12955053  0.08828293  0.79517933     1.10900
O85         O  0.14800655  0.04004789  0.70606543    -0.78700
O86         O  0.30190519  0.95625785  0.85345355    -0.78700
O87         O  0.23224009  0.94489309  0.69710322    -0.78700
O88         O  0.30465960  0.05363795  0.77227902    -0.78700
O89         O  0.29746509  0.05016376  0.85280125    -0.78700
O90         O  0.15150933  0.94615090  0.70792818    -0.78700
O91         O  0.22863209  0.04802743  0.69765323    -0.78600
O92         O  0.31031274  0.95091836  0.77296201    -0.78700
Co93       Co  0.14232402  0.99355944  0.76358694     1.51500
Co94       Co  0.24302517  0.00029691  0.86178613     1.51700
Co95       Co  0.24022715  0.92815831  0.76838853     1.51600
Co96       Co  0.23321804  0.06859400  0.76781793     1.51500
O97         O  0.21491966  0.99760788  0.79001919    -1.40600
C98         C  0.18552306  0.04880048  0.67932870     1.11000
C99         C  0.32866840  0.94860049  0.81596228     1.11000
C100        C  0.18854277  0.93903058  0.68048984     1.11000
C101        C  0.32305266  0.05907093  0.81480590     1.11000
O102        O  0.05042641  0.12256718  0.81112240    -0.78700
O103        O  0.95566119  0.18698684  0.86908155    -0.78700
O104        O  0.09267680  0.23163122  0.85232980    -0.78700
O105        O  0.90225903  0.16950969  0.75355544    -0.78600
O106        O  0.03287776  0.23733449  0.91105708    -0.78800
O107        O  0.95115375  0.12440914  0.79808040    -0.78700
O108        O  0.90345179  0.23138666  0.82629506    -0.78700
O109        O  0.10873388  0.16827669  0.78044109    -0.78700
C110        C  0.09501452  0.12872448  0.80025217     1.11000
C111        C  0.91317775  0.20510817  0.86349155     1.10900
C112        C  0.07807018  0.23250765  0.89820508     1.11000
C113        C  0.90962205  0.13186674  0.77985481     1.10900
O114        O  0.96685797  0.15253169  0.69558742    -0.78700
O115        O  0.04183618  0.30003718  0.84425137    -0.78700
O116        O  0.07441468  0.22907021  0.70280819    -0.78700
O117        O  0.95357466  0.30557703  0.77249606    -0.78700
O118        O  0.96159684  0.29265561  0.85278666    -0.78700
O119        O  0.06194424  0.14903336  0.70799394    -0.78700
O120        O  0.95650121  0.23349260  0.69018679    -0.78600
O121        O  0.06780754  0.30546863  0.77046407    -0.78700
Co122      Co  0.00707606  0.14183084  0.75647465     1.51500
Co123      Co  0.00667260  0.23409404  0.84876650     1.51700
Co124      Co  0.07902348  0.23368820  0.77571471     1.51600
Co125      Co  0.93469335  0.23550033  0.76022921     1.51500
O126        O  0.00441944  0.21395871  0.77983815    -1.40600
C127        C  0.95745800  0.19074499  0.67051705     1.11000
C128        C  0.06225369  0.32471268  0.81170370     1.11000
C129        C  0.07387398  0.18655932  0.68339198     1.11000
C130        C  0.95082557  0.32080664  0.81697923     1.11000
O131        O  0.05588561  0.87051393  0.19470452    -0.78700
O132        O  0.95239791  0.79913063  0.11975400    -0.78700
O133        O  0.10673884  0.75943903  0.17068864    -0.78700
O134        O  0.90023265  0.82134935  0.23075817    -0.78600
O135        O  0.05592616  0.80183354  0.12465377    -0.78800
O136        O  0.95364400  0.86695830  0.19039046    -0.78700
O137        O  0.90004808  0.75675033  0.16482209    -0.78700
O138        O  0.10613592  0.82406090  0.23694795    -0.78700
C139        C  0.09785912  0.86304023  0.21283866     1.11000
C140        C  0.90961395  0.78173646  0.12677236     1.10900
C141        C  0.09851369  0.78595257  0.13343634     1.11000
C142        C  0.91076813  0.85976503  0.20645883     1.10900
O143        O  0.95397503  0.84005526  0.29439280    -0.78700
O144        O  0.05197376  0.69731852  0.14709424    -0.78700
O145        O  0.05337841  0.76378929  0.30648510    -0.78700
O146        O  0.95024753  0.68568243  0.22355417    -0.78700
O147        O  0.95795527  0.69614676  0.14358984    -0.78700
O148        O  0.04770926  0.84416550  0.29744077    -0.78700
O149        O  0.95042919  0.75924161  0.30066942    -0.78600
O150        O  0.05419476  0.68686013  0.22754347    -0.78700
Co151      Co  0.00269864  0.85046691  0.23956821     1.51500
Co152      Co  0.00469382  0.75310935  0.13891587     1.51700
Co153      Co  0.07320849  0.75803163  0.23536814     1.51600
Co154      Co  0.93194993  0.75583033  0.23044231     1.51500
O155        O  0.00319654  0.77874414  0.21152083    -1.40600
C156        C  0.94743116  0.80169266  0.31991240     1.11000
C157        C  0.05766290  0.66958941  0.18388612     1.11000
C158        C  0.05598362  0.80734056  0.32435535     1.11000
C159        C  0.94642335  0.66949629  0.17987503     1.11000
O160        O  0.30120869  0.85102505  0.04910357    -0.78700
O161        O  0.15373550  0.70119608  0.95737387    -0.78700
O162        O  0.23486000  0.69315419  0.05385034    -0.78700
O163        O  0.31068521  0.77102662  0.95067402    -0.78600
O164        O  0.15404962  0.70176838  0.05068576    -0.78800
O165        O  0.30053149  0.85141224  0.95568625    -0.78700
O166        O  0.23461043  0.69323488  0.95190736    -0.78700
O167        O  0.31137719  0.77057456  0.05309447    -0.78700
C168        C  0.32857407  0.81423582  0.05603095     1.11000
C169        C  0.19127489  0.67489718  0.94951616     1.10900
C170        C  0.19145670  0.67515470  0.05750184     1.11000
C171        C  0.32774146  0.81470672  0.94731933     1.10900
O172        O  0.19681484  0.87478394  0.95188291    -0.78700
O173        O  0.12920675  0.80533354  0.05500251    -0.78700
O174        O  0.24074863  0.82884836  0.10620112    -0.78700
O175        O  0.17397206  0.76286813  0.90125944    -0.78700
O176        O  0.12754353  0.80452251  0.95265008    -0.78700
O177        O  0.19780796  0.87506253  0.05604404    -0.78700
O178        O  0.23887740  0.82890120  0.90008032    -0.78600
O179        O  0.17549353  0.76367102  0.10605581    -0.78700
Co180      Co  0.24440450  0.85800526  0.00321155     1.51500
Co181      Co  0.14608713  0.75789038  0.00388513     1.51700
Co182      Co  0.24082957  0.76382092  0.07302020     1.51600
Co183      Co  0.23978582  0.76383020  0.93270491     1.51500
O184        O  0.21827465  0.78548404  0.00316557    -1.40600
C185        C  0.21398888  0.86710504  0.90933918     1.11000
C186        C  0.13697638  0.78822094  0.09716024     1.11000
C187        C  0.21481507  0.86658517  0.09833061     1.11000
C188        C  0.13495080  0.78666061  0.91059044     1.11000
O189        O  0.05013625  0.14870745  0.29935239    -0.78700
O190        O  0.96427888  0.29332531  0.14416886    -0.78700
O191        O  0.05933473  0.30216030  0.22664731    -0.78700
O192        O  0.95174827  0.22844841  0.30108380    -0.78600
O193        O  0.05838851  0.29066967  0.14641570    -0.78800
O194        O  0.95623132  0.14781614  0.29417631    -0.78700
O195        O  0.95631006  0.30307587  0.22432969    -0.78700
O196        O  0.05512384  0.22943909  0.30538246    -0.78700
C197        C  0.05737727  0.18705907  0.32503914     1.11000
C198        C  0.95525095  0.32062771  0.18100164     1.10900
C199        C  0.06495966  0.31835932  0.18315872     1.11000
C200        C  0.94661637  0.18569647  0.31930110     1.10900
O201        O  0.95672397  0.11977455  0.19157714    -0.78700
O202        O  0.06217340  0.18715484  0.12302456    -0.78700
O203        O  0.10940124  0.16633630  0.23906459    -0.78700
O204        O  0.90610222  0.23227302  0.16378746    -0.78700
O205        O  0.95784331  0.18853948  0.11980857    -0.78700
O206        O  0.05939833  0.12000263  0.19577585    -0.78700
O207        O  0.90297411  0.16682638  0.22944203    -0.78600
O208        O  0.11240906  0.22882283  0.17115462    -0.78700
Co209      Co  0.00597583  0.13895172  0.24051668     1.51500
Co210      Co  0.01028459  0.23532970  0.13860876     1.51700
Co211      Co  0.07723164  0.23191027  0.23540715     1.51600
Co212      Co  0.93610064  0.23268817  0.22998307     1.51500
O213        O  0.00736097  0.21012147  0.21144296    -1.40600
C214        C  0.91350738  0.12726067  0.20694362     1.11000
C215        C  0.10491018  0.20309912  0.13290046     1.11000
C216        C  0.10140311  0.12801991  0.21365100     1.11000
C217        C  0.91508714  0.20532979  0.12691951     1.11000
O218        O  0.15115325  0.95070413  0.30227179    -0.78700
O219        O  0.30598239  0.03996538  0.15786467    -0.78700
O220        O  0.31102378  0.94209580  0.23565918    -0.78700
O221        O  0.23370187  0.04734635  0.31148359    -0.78600
O222        O  0.30182735  0.94643663  0.15535786    -0.78800
O223        O  0.15318746  0.04428944  0.30046164    -0.78700
O224        O  0.31249941  0.04531748  0.23855236    -0.78700
O225        O  0.23159688  0.94419097  0.31320246    -0.78700
C226        C  0.18744332  0.94299785  0.33025248     1.11000
C227        C  0.33169855  0.04776915  0.19583654     1.10900
C228        C  0.32897196  0.93915559  0.19213438     1.11000
C229        C  0.19002277  0.05298983  0.32744267     1.10900
O230        O  0.13095721  0.04797209  0.19703067    -0.78700
O231        O  0.19842822  0.94582364  0.12974458    -0.78700
O232        O  0.17236651  0.89302917  0.24192624    -0.78700
O233        O  0.24610511  0.09850449  0.17694167    -0.78700
O234        O  0.20287040  0.04852180  0.13051750    -0.78700
O235        O  0.12796473  0.94410854  0.19841839    -0.78700
O236        O  0.17723800  0.09965152  0.23910175    -0.78600
O237        O  0.23769702  0.89268674  0.17595813    -0.78700
Co238      Co  0.14604638  0.99660010  0.24500127     1.51500
Co239      Co  0.24754811  0.99531750  0.14832040     1.51700
Co240      Co  0.23873255  0.92483823  0.24197787     1.51600
Co241      Co  0.24223111  0.06586320  0.24174658     1.51500
O242        O  0.21914514  0.99558269  0.21985173    -1.40600
C243        C  0.13910204  0.09062389  0.21371836     1.11000
C244        C  0.21382713  0.90287094  0.13720827     1.11000
C245        C  0.13509074  0.90156716  0.21539381     1.11000
C246        C  0.22201193  0.09012893  0.13814412     1.11000
O247        O  0.20856341  0.11903062  0.05782191    -0.78700
O248        O  0.10155619  0.23922002  0.97999451    -0.78700
O249        O  0.18318399  0.22720269  0.10878075    -0.78700
O250        O  0.23349712  0.16829948  0.90162781    -0.78600
O251        O  0.14013942  0.18506242  0.05454369    -0.78800
O252        O  0.19839815  0.12115251  0.95602304    -0.78700
O253        O  0.16149334  0.23118261  0.92134116    -0.78700
O254        O  0.25306216  0.16348998  0.10867623    -0.78700
C255        C  0.22596146  0.12648420  0.09999799     1.11000
C256        C  0.11509407  0.23304338  0.93531461     1.10900
C257        C  0.14518718  0.20202488  0.09754676     1.11000
C258        C  0.20995223  0.12974922  0.91195550     1.10900
O259        O  0.30352583  0.14541669  0.95059146    -0.78700
O260        O  0.16140127  0.29058136  0.05281516    -0.78700
O261        O  0.32056789  0.22514977  0.05872635    -0.78700
O262        O  0.24731560  0.30246321  0.95153991    -0.78700
O263        O  0.17163492  0.29940220  0.97200784    -0.78700
O264        O  0.31134219  0.14464406  0.04548079    -0.78700
O265        O  0.31144729  0.22569871  0.94255857    -0.78600
O266        O  0.24229871  0.30049564  0.06182178    -0.78700
Co267      Co  0.25210719  0.13725355  0.00300010     1.51500
Co268      Co  0.16346985  0.23308003  0.00588569     1.51700
Co269      Co  0.25030864  0.22975075  0.07887855     1.51600
Co270      Co  0.23882990  0.23187526  0.93585879     1.51500
O271        O  0.23154757  0.20993960  0.00861205    -1.40600
C272        C  0.32996543  0.18301499  0.94226541     1.11000
C273        C  0.19849549  0.31758552  0.06359738     1.11000
C274        C  0.33763041  0.18146707  0.05758191     1.11000
C275        C  0.20697301  0.32347846  0.95559684     1.11000
O276        O  0.85779945  0.03916153  0.29716562    -0.78700
O277        O  0.71293157  0.94624719  0.14587957    -0.78700
O278        O  0.70354668  0.04350922  0.22569538    -0.78700
O279        O  0.77817449  0.94012767  0.30432197    -0.78600
O280        O  0.71459288  0.03978511  0.14549948    -0.78800
O281        O  0.85906135  0.94540251  0.29533147    -0.78700
O282        O  0.70174363  0.94177549  0.22620062    -0.78700
O283        O  0.77676842  0.04335436  0.30360166    -0.78700
C284        C  0.81938410  0.04650449  0.32284535     1.11000
C285        C  0.68489286  0.93933981  0.18252695     1.10900
C286        C  0.68685398  0.04676700  0.18225458     1.11000
C287        C  0.82171091  0.93628415  0.32176631     1.10900
O288        O  0.88526501  0.94147221  0.19275137    -0.78700
O289        O  0.81920834  0.04303443  0.12193048    -0.78700
O290        O  0.83938044  0.09586545  0.23551631    -0.78700
O291        O  0.77337467  0.88980366  0.16720591    -0.78700
O292        O  0.81749925  0.94064254  0.12221361    -0.78700
O293        O  0.88626693  0.04515927  0.19372348    -0.78700
O294        O  0.83701886  0.89002059  0.23321317    -0.78600
O295        O  0.77701896  0.09487889  0.16739751    -0.78700
Co296      Co  0.86724420  0.99291768  0.24005405     1.51500
Co297      Co  0.77058542  0.99240402  0.13908953     1.51700
Co298      Co  0.77393343  0.06279241  0.23319367     1.51600
Co299      Co  0.77233646  0.92235050  0.23299778     1.51500
O300        O  0.79566313  0.99254309  0.21184004    -1.40600
C301        C  0.87538904  0.89868484  0.20807017     1.11000
C302        C  0.80209812  0.08539023  0.12898129     1.11000
C303        C  0.87747750  0.08781402  0.20974997     1.11000
C304        C  0.79921309  0.89858608  0.12915331     1.11000
O305        O  0.71207406  0.13518210  0.04245920    -0.78700
O306        O  0.85680212  0.29208682  0.95222112    -0.78700
O307        O  0.77428338  0.29447902  0.05080920    -0.78700
O308        O  0.70223898  0.21971101  0.94617193    -0.78600
O309        O  0.85544015  0.28909204  0.04580813    -0.78800
O310        O  0.71269332  0.13918729  0.94900618    -0.78700
O311        O  0.77596773  0.29832832  0.94830579    -0.78700
O312        O  0.69986506  0.21505479  0.04857102    -0.78700
C313        C  0.68336758  0.17094976  0.04992506     1.11000
C314        C  0.81868733  0.31776376  0.94510146     1.10900
C315        C  0.81701307  0.31355797  0.05543686     1.11000
C316        C  0.68572883  0.17611556  0.94092456     1.10900
O317        O  0.81677919  0.11715841  0.94293433    -0.78700
O318        O  0.88480117  0.18653441  0.04752586    -0.78700
O319        O  0.77280056  0.15813929  0.09876076    -0.78700
O320        O  0.83824443  0.23068346  0.89480293    -0.78700
O321        O  0.88545291  0.18891175  0.94470511    -0.78700
O322        O  0.81665945  0.11373598  0.04727840    -0.78700
O323        O  0.77397597  0.16371061  0.89304777    -0.78600
O324        O  0.83683030  0.22503827  0.10010244    -0.78700
Co325      Co  0.76920458  0.13152285  0.99552641     1.51500
Co326      Co  0.86566399  0.23435091  0.99743794     1.51700
Co327      Co  0.77083993  0.22356824  0.06774364     1.51600
Co328      Co  0.77249957  0.22806190  0.92741411     1.51500
O329        O  0.79414451  0.20465909  0.99706075    -1.40600
C330        C  0.79887595  0.12533926  0.90098883     1.11000
C331        C  0.87656533  0.20242924  0.09027992     1.11000
C332        C  0.79994652  0.12146093  0.09005989     1.11000
C333        C  0.87666406  0.20555348  0.90249278     1.11000
O334        O  0.06136102  0.83897391  0.70726740    -0.78700
O335        O  0.95274867  0.69868577  0.84774426    -0.78700
O336        O  0.05610735  0.68344337  0.77858602    -0.78700
O337        O  0.95941554  0.76756606  0.69163107    -0.78600
O338        O  0.04612474  0.69529902  0.85807863    -0.78800
O339        O  0.96795737  0.84752149  0.70186171    -0.78700
O340        O  0.95286133  0.69096143  0.76681936    -0.78700
O341        O  0.06184798  0.75802897  0.70036939    -0.78700
C342        C  0.06647164  0.80053317  0.68138571     1.11000
C343        C  0.94631755  0.67289147  0.80944410     1.10900
C344        C  0.05593224  0.66693033  0.82254537     1.11000
C345        C  0.95848330  0.81113285  0.67448996     1.10900
O346        O  0.95824404  0.87353596  0.80456645    -0.78700
O347        O  0.05336881  0.79899383  0.88161231    -0.78700
O348        O  0.11292194  0.81941344  0.77225155    -0.78700
O349        O  0.90002150  0.76220756  0.82468039    -0.78700
O350        O  0.95070408  0.80298293  0.87256092    -0.78700
O351        O  0.05994391  0.86581196  0.81156785    -0.78700
O352        O  0.90726962  0.82855348  0.76065161    -0.78600
O353        O  0.10566264  0.75498534  0.83823432    -0.78700
Co354      Co  0.01164169  0.85146002  0.76087120     1.51500
Co355      Co  0.00106756  0.75350355  0.85999463     1.51700
Co356      Co  0.07748205  0.75416313  0.77153583     1.51600
Co357      Co  0.93667555  0.76177848  0.76130188     1.51500
O358        O  0.00668155  0.77960356  0.78794538    -1.40600
C359        C  0.91626440  0.86678506  0.78591700     1.11000
C360        C  0.09623975  0.78240220  0.87465441     1.11000
C361        C  0.10291701  0.85847011  0.79611183     1.11000
C362        C  0.90821106  0.78662196  0.86351641     1.11000
O363        O  0.88074933  0.05235125  0.80041913    -0.78700
O364        O  0.81537237  0.94317569  0.86952373    -0.78700
O365        O  0.76896721  0.09622200  0.82678260    -0.78700
O366        O  0.84165180  0.89516143  0.75822266    -0.78600
O367        O  0.81298736  0.04527574  0.87079933    -0.78800
O368        O  0.88644923  0.94788512  0.80065280    -0.78700
O369        O  0.77526917  0.89080881  0.82286130    -0.78700
O370        O  0.83263343  0.10189413  0.75907568    -0.78700
C371        C  0.87187418  0.09430468  0.78262965     1.11000
C372        C  0.79891383  0.90046532  0.86192142     1.10900
C373        C  0.79604233  0.08758928  0.86367838     1.11000
C374        C  0.87918417  0.90491885  0.78420012     1.10900
O375        O  0.86207785  0.95210942  0.69735178    -0.78700
O376        O  0.70808151  0.03815995  0.84600687    -0.78700
O377        O  0.77523456  0.04798829  0.68957581    -0.78700
O378        O  0.70263691  0.93967744  0.76384436    -0.78700
O379        O  0.71144603  0.94442870  0.84437435    -0.78700
O380        O  0.85624577  0.04537215  0.69804943    -0.78700
O381        O  0.78175485  0.94427110  0.68671112    -0.78600
O382        O  0.69936432  0.04246484  0.76576611    -0.78700
Co383      Co  0.86626402  0.99908375  0.75385653     1.51500
Co384      Co  0.76655322  0.99313312  0.85258654     1.51700
Co385      Co  0.76902870  0.06526453  0.76026128     1.51600
Co386      Co  0.77483383  0.92434028  0.75765812     1.51500
O387        O  0.79374625  0.99536773  0.78045783    -1.40600
C388        C  0.82579848  0.94367687  0.66952752     1.11000
C389        C  0.68104100  0.04484250  0.80876848     1.11000
C390        C  0.81859858  0.05398994  0.67232414     1.11000
C391        C  0.68479805  0.93585018  0.80730316     1.11000
O392        O  0.81412034  0.87068117  0.04777240    -0.78700
O393        O  0.87936431  0.79988934  0.94412354    -0.78700
O394        O  0.83316223  0.75665476  0.09739636    -0.78700
O395        O  0.76853145  0.82732446  0.89268898    -0.78600
O396        O  0.88067961  0.79787260  0.04647272    -0.78800
O397        O  0.81293593  0.87210246  0.94340799    -0.78700
O398        O  0.83196384  0.76056312  0.89162682    -0.78700
O399        O  0.77073096  0.82475346  0.09882280    -0.78700
C400        C  0.79751478  0.86217434  0.09042800     1.11000
C401        C  0.87075316  0.78494289  0.90112671     1.10900
C402        C  0.87222331  0.78125249  0.08880917     1.11000
C403        C  0.79586595  0.86432076  0.90091724     1.10900
O404        O  0.70851679  0.84909949  0.95032778    -0.78700
O405        O  0.84987291  0.69465110  0.04010955    -0.78700
O406        O  0.69620636  0.76964396  0.04745049    -0.78700
O407        O  0.76870923  0.69187382  0.94328689    -0.78700
O408        O  0.84970789  0.69725656  0.94645900    -0.78700
O409        O  0.70969008  0.84968440  0.04399609    -0.78700
O410        O  0.69721475  0.76877712  0.94576091    -0.78600
O411        O  0.76877262  0.68941586  0.04497999    -0.78700
Co412      Co  0.76582308  0.85522906  0.99623833     1.51500
Co413      Co  0.86025746  0.75212939  0.99448225     1.51700
Co414      Co  0.76702246  0.76000269  0.06541249     1.51600
Co415      Co  0.76655048  0.76194809  0.92500797     1.51500
O416        O  0.78952402  0.78207467  0.99535810    -1.40600
C417        C  0.68072728  0.81219846  0.94325707     1.11000
C418        C  0.81106158  0.66929423  0.04705045     1.11000
C419        C  0.68067853  0.81376448  0.05082511     1.11000
C420        C  0.81087385  0.67270887  0.93813295     1.11000
C421        C  0.91555035  0.58579758  0.83603953    -0.11800
C422        C  0.92922232  0.62364158  0.81730653    -0.13400
C423        C  0.83551930  0.58572710  0.90767947    -0.11800
C424        C  0.81746458  0.62380974  0.92070994    -0.13400
C425        C  0.92551054  0.40897963  0.84751226    -0.11800
C426        C  0.93721631  0.37031866  0.82913287    -0.13400
C427        C  0.82682149  0.36835632  0.93107365    -0.11800
C428        C  0.84424661  0.40770828  0.91901595    -0.13400
C429        C  0.92531471  0.62258647  0.16835033    -0.11800
C430        C  0.90993123  0.58621784  0.14806803    -0.13400
C431        C  0.83525753  0.57844121  0.06995334    -0.11800
C432        C  0.81796216  0.61793991  0.05882717    -0.13400
C433        C  0.94139722  0.37090983  0.17095723    -0.11800
C434        C  0.92821094  0.40958885  0.15331353    -0.13400
C435        C  0.84361653  0.40071823  0.08657877    -0.11800
C436        C  0.82510767  0.36235589  0.07376009    -0.13400
C437        C  0.85368943  0.47758227  0.01260025    -0.15000
C438        C  0.83317972  0.50384377  0.97624886    -0.30100
H439        H  0.87801091  0.44788183  0.00177447     0.14100
H440        H  0.80971216  0.53449172  0.98575579     0.14600
C441        C  0.06976755  0.61900336  0.17256268    -0.11800
C442        C  0.08034814  0.58126909  0.15099970    -0.13400
C443        C  0.16095193  0.58604689  0.07855087    -0.11800
C444        C  0.18128981  0.62473437  0.06973698    -0.13400
C445        C  0.08002355  0.36765921  0.17233305    -0.11800
C446        C  0.09109281  0.40509959  0.15127953    -0.13400
C447        C  0.16952351  0.40794666  0.07951585    -0.11800
C448        C  0.18863799  0.36845623  0.07336369    -0.13400
C449        C  0.02114465  0.48533920  0.15249047    -0.15000
C450        C  0.98403034  0.51116340  0.13285657    -0.30100
H451        H  0.01219004  0.45423686  0.17562634     0.14100
H452        H  0.99436699  0.54176982  0.10931155     0.14600
C453        C  0.07950538  0.57962165  0.85785838    -0.11800
C454        C  0.06875589  0.61690346  0.83571557    -0.13400
C455        C  0.16089457  0.58571727  0.92893802    -0.11800
C456        C  0.18128508  0.62441757  0.93745084    -0.13400
C457        C  0.08231687  0.37153289  0.82660794    -0.11800
C458        C  0.09582230  0.40574403  0.85192465    -0.13400
C459        C  0.17478211  0.40913585  0.92784322    -0.11800
C460        C  0.19704154  0.37265590  0.93958083    -0.13400
C461        C  0.19505986  0.49943364  0.97893273    -0.15000
C462        C  0.19453712  0.49883841  0.02911353    -0.30100
H463        H  0.23129692  0.50144124  0.96197742     0.14100
H464        H  0.23038835  0.50074610  0.04656688     0.14600
C465        C  0.02009753  0.47922353  0.87078155    -0.15000
C466        C  0.98577734  0.50523079  0.84638082    -0.30100
H467        H  0.00717308  0.44865609  0.89289693     0.14100
H468        H  0.99781653  0.53601948  0.82434586     0.14600
C469        C  0.59664238  0.91144116  0.84036242    -0.11800
C470        C  0.63458481  0.92124179  0.81841029    -0.13400
C471        C  0.59269750  0.84164409  0.92114873    -0.11800
C472        C  0.63085373  0.82217909  0.93124429    -0.13400
C473        C  0.41757990  0.92249001  0.84463218    -0.11800
C474        C  0.37912659  0.93449971  0.82544649    -0.13400
C475        C  0.41534884  0.84691370  0.92167970    -0.11800
C476        C  0.37747010  0.82598231  0.93272949    -0.13400
C477        C  0.59572869  0.92168879  0.14958132    -0.11800
C478        C  0.63410948  0.92892625  0.17106486    -0.13400
C479        C  0.63048948  0.82652108  0.06251152    -0.11800
C480        C  0.59307675  0.84904149  0.07141607    -0.13400
C481        C  0.41743791  0.92017425  0.15697204    -0.11800
C482        C  0.37986560  0.92778536  0.18040784    -0.13400
C483        C  0.37870062  0.82559828  0.06832804    -0.11800
C484        C  0.41616957  0.84803638  0.07728665    -0.13400
C485        C  0.50312863  0.82051671  0.97350956    -0.15000
C486        C  0.50286228  0.82273753  0.02379702    -0.30100
H487        H  0.50206449  0.78360841  0.95831851     0.14100
H488        H  0.50139450  0.78723291  0.04183594     0.14600
C489        C  0.63011057  0.05730103  0.81781084    -0.11800
C490        C  0.59077581  0.06972682  0.83496418    -0.13400
C491        C  0.59923054  0.14725919  0.90944746    -0.11800
C492        C  0.63723288  0.16569707  0.92321373    -0.13400
C493        C  0.37252361  0.07674470  0.82258634    -0.11800
C494        C  0.41193236  0.08955411  0.83900545    -0.13400
C495        C  0.42075792  0.15863530  0.91995387    -0.11800
C496        C  0.38091288  0.17496981  0.93070746    -0.13400
C497        C  0.48768625  0.01606089  0.85231100    -0.15000
C498        C  0.51386671  0.97863277  0.83377033    -0.30100
H499        H  0.45755333  0.00684683  0.87702423     0.14100
H500        H  0.54493468  0.98660085  0.81005044     0.14600
C501        C  0.63660609  0.05825631  0.17164340    -0.11800
C502        C  0.59798430  0.06658517  0.15168370    -0.13400
C503        C  0.59420755  0.13689487  0.07041692    -0.11800
C504        C  0.63255905  0.15820473  0.06077812    -0.13400
C505        C  0.38229830  0.06101486  0.18700011    -0.11800
C506        C  0.42049739  0.07081779  0.16606992    -0.13400
C507        C  0.42032936  0.14546719  0.08779450    -0.11800
C508        C  0.38545739  0.16941606  0.07518157    -0.13400
C509        C  0.50976874  0.01809228  0.18616645    -0.15000
C510        C  0.50798157  0.96816144  0.18356464    -0.30100
H511        H  0.51095808  0.03392386  0.22276380     0.14100
H512        H  0.50839669  0.94889398  0.21840215     0.14600
C513        C  0.51701621  0.15186824  0.97802828    -0.15000
C514        C  0.49340094  0.12480771  0.01227529    -0.30100
H515        H  0.54702217  0.17578237  0.98924409     0.14100
H516        H  0.46418123  0.10046794  0.99958448     0.14600
C517        C  0.94506970  0.82263615  0.62471411    -0.11800
C518        C  0.93481626  0.84309113  0.58667104    -0.13400
C519        C  0.86098516  0.92235285  0.58160865    -0.11800
C520        C  0.83838195  0.93201122  0.61907875    -0.13400
C521        C  0.85539942  0.90764363  0.40703809    -0.11800
C522        C  0.83267528  0.91952744  0.37070468    -0.13400
C523        C  0.92849683  0.82894341  0.40957281    -0.11800
C524        C  0.93640791  0.80927714  0.37070869    -0.13400
C525        C  0.94292159  0.18193048  0.62033219    -0.11800
C526        C  0.92968654  0.16282953  0.58227579    -0.13400
C527        C  0.82858977  0.07395628  0.62480590    -0.11800
C528        C  0.84955271  0.08844010  0.58845138    -0.13400
C529        C  0.91498033  0.15744101  0.40548356    -0.11800
C530        C  0.92803369  0.17689546  0.36780507    -0.13400
C531        C  0.84455208  0.07465248  0.41179392    -0.11800
C532        C  0.82701772  0.06109424  0.37319908    -0.13400
C533        C  0.85021267  0.01697621  0.50837477    -0.15000
C534        C  0.87349391  0.98226419  0.48164926    -0.30100
H535        H  0.82931235  0.00578792  0.54034412     0.14100
H536        H  0.89483260  0.99478975  0.45026184     0.14600
C537        C  0.16026196  0.07438093  0.58935489    -0.11800
C538        C  0.17669374  0.06184086  0.62870084    -0.13400
C539        C  0.09541616  0.15898869  0.59399370    -0.11800
C540        C  0.08752170  0.17784493  0.63333054    -0.13400
C541        C  0.08321205  0.16263742  0.41516937    -0.11800
C542        C  0.07092298  0.17963619  0.37588191    -0.13400
C543        C  0.15924066  0.08651275  0.41168044    -0.11800
C544        C  0.17933168  0.07212999  0.37499704    -0.13400
C545        C  0.02480117  0.16540441  0.51185861    -0.15000
C546        C  0.98868331  0.14763933  0.48264491    -0.30100
H547        H  0.01500837  0.18514581  0.54484829     0.14100
H548        H  0.00021483  0.12698047  0.45058052     0.14600
C549        C  0.08458542  0.82796162  0.59123481    -0.11800
C550        C  0.07714056  0.80828017  0.63029920    -0.13400
C551        C  0.17731416  0.92236732  0.63123930    -0.11800
C552        C  0.15567827  0.90953171  0.59429743    -0.13400
C553        C  0.07923464  0.83960995  0.41307426    -0.11800
C554        C  0.06928576  0.81870470  0.37472189    -0.13400
C555        C  0.17473444  0.93130030  0.38079378    -0.11800
C556        C  0.15234993  0.92121171  0.41839292    -0.13400
C557        C  0.13586354  0.98177356  0.51807585    -0.15000
C558        C  0.15930775  0.01722673  0.49245166    -0.30100
H559        H  0.11239245  0.99358320  0.54824928     0.14100
H560        H  0.18223495  0.00662324  0.46159815     0.14600
C561        C  0.98084388  0.80658481  0.49852951    -0.15000
C562        C  0.03110233  0.80578661  0.50193904    -0.30100
H563        H  0.96294304  0.77081948  0.49695649     0.14100
H564        H  0.04753799  0.76957870  0.50369309     0.14600
loop_ 
_geom_bond_atom_site_label_1 
_geom_bond_atom_site_label_2 
_geom_bond_distance 
_geom_bond_site_symmetry_2 
_ccdc_geom_bond_type 
C1            C2   1.424       .  A
C1            C6   1.423       .  A
C1          C549   1.455       .  S
C2            C3   1.425       .  A
C2          C562   1.507       .  S
C3            C4   1.441       .  A
C3          C553   1.471       .  S
C4            C5   1.426       .  A
C4          C556   1.467       .  S
C5            C6   1.408       .  A
C5          C557   1.511       .  S
C6          C552   1.469       .  S
C7            C8   1.418       .  A
C7           C12   1.424       .  A
C7          C537   1.461       .  S
C8            C9   1.412       .  A
C8          C558   1.516       .  S
C9           C10   1.424       .  A
C9          C543   1.443       .  S
C10          C11   1.420       .  A
C10         C541   1.466       .  S
C11          C12   1.416       .  A
C11         C545   1.514       .  S
C12         C539   1.450       .  S
C13          C14   1.430       .  A
C13          C18   1.412       .  A
C13         C528   1.448       .  S
C14          C15   1.419       .  A
C14         C526   1.458       .  S
C15          C16   1.412       .  A
C15         C546   1.513       .  S
C16          C17   1.423       .  A
C16         C529   1.452       .  S
C17          C18   1.417       .  A
C17         C531   1.458       .  S
C18         C533   1.516       .  S
C19          C20   1.423       .  A
C19          C24   1.439       .  A
C19         C518   1.460       .  S
C20          C21   1.421       .  A
C20         C561   1.511       .  S
C21          C22   1.423       .  A
C21         C523   1.448       .  S
C22          C23   1.406       .  A
C22         C521   1.464       .  S
C23          C24   1.422       .  A
C23         C534   1.513       .  S
C24         C519   1.464       .  S
C25          C26   1.416       .  A
C25          C30   1.433       .  A
C25         C503   1.463       .  S
C26          C27   1.404       .  A
C26         C514   1.510       .  S
C27          C28   1.421       .  A
C27         C507   1.446       .  S
C28          C29   1.414       .  A
C28         C506   1.457       .  S
C29          C30   1.420       .  A
C29         C509   1.502       .  S
C30         C502   1.450       .  S
C31          C32   1.409       .  A
C31          C36   1.425       .  A
C31         C491   1.448       .  S
C32          C33   1.419       .  A
C32         C513   1.512       .  S
C33          C34   1.419       .  A
C33         C495   1.448       .  S
C34          C35   1.408       .  A
C34         C494   1.459       .  S
C35          C36   1.421       .  A
C35         C497   1.500       .  S
C36         C490   1.458       .  S
C37          C38   1.436       .  A
C37          C42   1.426       .  A
C37         C484   1.455       .  S
C38          C39   1.420       .  A
C38         C481   1.473       .  S
C39          C40   1.420       .  A
C39         C510   1.507       .  S
C40          C41   1.433       .  A
C40         C477   1.462       .  S
C41          C42   1.422       .  A
C41         C480   1.462       .  S
C42         C486   1.517       .  S
C43          C44   1.407       .  A
C43          C48   1.425       .  A
C43         C469   1.469       .  S
C44          C45   1.421       .  A
C44         C498   1.506       .  S
C45          C46   1.432       .  A
C45         C473   1.466       .  S
C46          C47   1.421       .  A
C46         C475   1.456       .  S
C47          C48   1.422       .  A
C47         C485   1.513       .  S
C48         C471   1.440       .  S
C49          C50   1.409       .  A
C49          C54   1.427       .  A
C49         C458   1.459       .  S
C50          C51   1.420       .  A
C50         C465   1.515       .  S
C51          C52   1.437       .  A
C51         C453   1.468       .  S
C52          C53   1.423       .  A
C52         C455   1.455       .  S
C53          C54   1.420       .  A
C53         C461   1.510       .  S
C54         C459   1.456       .  S
C55          C56   1.422       .  A
C55          C60   1.407       .  A
C55         C446   1.453       .  S
C56          C57   1.420       .  A
C56         C447   1.453       .  S
C57          C58   1.424       .  A
C57         C462   1.508       .  S
C58          C59   1.435       .  A
C58         C443   1.457       .  S
C59          C60   1.420       .  A
C59         C442   1.466       .  S
C60         C449   1.515       .  S
C61          C62   1.421       .  A
C61          C66   1.426       .  A
C61         C434   1.460       .  S
C62          C63   1.410       .  A
C62         C450   1.513       .  S
C63          C64   1.424       .  A
C63         C430   1.448       .  S
C64          C65   1.420       .  A
C64         C431   1.461       .  S
C65          C66   1.413       .  A
C65         C437   1.507       .  S
C66         C435   1.452       .  S
C67          C68   1.421       .  A
C67          C72   1.411       .  A
C67         C423   1.443       .  S
C68          C69   1.410       .  A
C68         C421   1.451       .  S
C69          C70   1.420       .  A
C69         C466   1.519       .  S
C70          C71   1.427       .  A
C70         C425   1.450       .  S
C71          C72   1.417       .  A
C71         C428   1.462       .  S
C72         C438   1.514       .  S
O73          C81   1.269       .  A
O73         Co93   1.972       .  S
O74          C82   1.261       .  A
O74         Co94   1.969       .  S
O75          C83   1.272       .  A
O75         Co95   1.999       .  S
O76          C84   1.268       .  A
O76         Co96   1.977       .  S
O77          C83   1.260       .  A
O77         Co94   1.959   1_565  S
O78          C84   1.266       .  A
O78         Co93   1.985   1_545  S
O79          C82   1.275       .  A
O79         Co96   2.014       .  S
O80          C81   1.267       .  A
O80         Co95   1.986       .  S
C81         C361   1.448       .  S
C82         C258   1.465       .  S
C83         C185   1.446       .  S
C84         C110   1.457       .  S
O85          C98   1.272       .  A
O85         Co93   2.023   1_545  S
O86          C99   1.269       .  A
O86         Co94   2.016   1_565  S
O87         C100   1.281       .  A
O87         Co95   2.011       .  S
O88         C101   1.273       .  A
O88         Co96   1.989       .  S
O89         C101   1.268       .  A
O89         Co94   2.016       .  S
O90         C100   1.266       .  A
O90         Co93   2.006       .  S
O91          C98   1.275       .  A
O91         Co96   1.996       .  S
O92          C99   1.278       .  A
O92         Co95   2.003       .  S
Co93         O97   2.105       .  S
Co94         O97   2.105   1_545  S
Co95         O97   2.099       .  S
Co96         O97   2.084   1_545  S
C98         C538   1.448       .  S
C99         C474   1.450       .  S
C100        C551   1.450       .  S
C101        C493   1.441       .  S
O102        C110   1.256       .  A
O102       Co122   1.977       .  S
O103        C111   1.268       .  A
O103       Co123   1.962   1_655  S
O104        C112   1.311       .  A
O104       Co124   2.124       .  S
O105        C113   1.270       .  A
O105       Co125   2.005       .  S
O106        C112   1.282       .  A
O106       Co123   1.846       .  S
O107        C113   1.253       .  A
O107       Co122   1.949   1_655  S
O108        C111   1.273       .  A
O108       Co125   1.991       .  S
O109        C110   1.260       .  A
O109       Co124   1.965       .  S
C111        C333   1.451       .  S
C112        C256   1.430       .  S
C113        C371   1.446       .  S
O114        C127   1.275       .  A
O114       Co122   2.014   1_655  S
O115        C128   1.241       .  A
O115       Co123   2.033       .  S
O116        C129   1.272       .  A
O116       Co124   1.996       .  S
O117        C130   1.283       .  A
O117       Co125   2.001       .  S
O118        C130   1.279       .  A
O118       Co123   2.019   1_655  S
O119        C129   1.264       .  A
O119       Co122   1.997       .  S
O120        C127   1.281       .  A
O120       Co125   1.998       .  S
O121        C128   1.248       .  A
O121       Co124   1.986       .  S
Co122       O126   2.065       .  S
Co123       O126   1.958       .  S
Co124       O126   2.096       .  S
Co125       O126   2.059   1_655  S
C127        C525   1.445       .  S
C128        C457   1.442       .  S
C129        C540   1.432       .  S
C130        C426   1.438       .  S
O131        C139   1.263       .  A
O131       Co151   1.965       .  S
O132        C140   1.266       .  A
O132       Co152   1.973   1_655  S
O133        C141   1.269       .  A
O133       Co153   1.982       .  S
O134        C142   1.271       .  A
O134       Co154   1.986       .  S
O135        C141   1.262       .  A
O135       Co152   1.956       .  S
O136        C142   1.257       .  A
O136       Co151   1.950   1_655  S
O137        C140   1.267       .  A
O137       Co154   1.992       .  S
O138        C139   1.272       .  A
O138       Co153   2.004       .  S
C139        C245   1.455       .  S
C140        C402   1.453       .  S
C141        C186   1.437       .  S
C142        C301   1.436       .  S
O143        C156   1.268       .  A
O143       Co151   2.012   1_655  S
O144        C157   1.268       .  A
O144       Co152   2.009       .  S
O145        C158   1.283       .  A
O145       Co153   2.016       .  S
O146        C159   1.273       .  A
O146       Co154   1.985       .  S
O147        C159   1.266       .  A
O147       Co152   2.003   1_655  S
O148        C158   1.266       .  A
O148       Co151   2.009       .  S
O149        C156   1.271       .  A
O149       Co154   1.984       .  S
O150        C157   1.282       .  A
O150       Co153   2.014       .  S
Co151       O155   2.096       .  S
Co152       O155   2.098       .  S
Co153       O155   2.094       .  S
Co154       O155   2.092   1_655  S
C156        C524   1.431       .  S
C157        C441   1.451       .  S
C158        C554   1.454       .  S
C159        C429   1.432       .  S
O160        C168   1.266       .  A
O160       Co180   2.001       .  S
O161        C169   1.267       .  A
O161       Co181   2.007   1_556  S
O162        C170   1.278       .  A
O162       Co182   1.999       .  S
O163        C171   1.278       .  A
O163       Co183   1.997       .  S
O164        C170   1.266       .  A
O164       Co181   2.007       .  S
O165        C171   1.266       .  A
O165       Co180   2.005   1_556  S
O166        C169   1.278       .  A
O166       Co183   1.998       .  S
O167        C168   1.278       .  A
O167       Co182   1.997       .  S
C168        C483   1.435       .  S
C169        C456   1.437       .  S
C170        C444   1.439       .  S
C171        C476   1.438       .  S
O172        C185   1.266       .  A
O172       Co180   1.966   1_556  S
O173        C186   1.261       .  A
O173       Co181   1.953       .  S
O174        C187   1.269       .  A
O174       Co182   1.987       .  S
O175        C188   1.270       .  A
O175       Co183   1.986       .  S
O176        C188   1.260       .  A
O176       Co181   1.960   1_556  S
O177        C187   1.266       .  A
O177       Co180   1.970       .  S
O178        C185   1.268       .  A
O178       Co183   1.986       .  S
O179        C186   1.270       .  A
O179       Co182   1.986       .  S
Co180       O184   2.095       .  S
Co181       O184   2.096       .  S
Co182       O184   2.091       .  S
Co183       O184   2.090   1_556  S
C187        C244   1.448       .  S
C188        C360   1.444       .  S
O189        C197   1.271       .  A
O189       Co209   2.024       .  S
O190        C198   1.272       .  A
O190       Co210   2.025   1_655  S
O191        C199   1.275       .  A
O191       Co211   1.992       .  S
O192        C200   1.274       .  A
O192       Co212   1.991       .  S
O193        C199   1.265       .  A
O193       Co210   2.000       .  S
O194        C200   1.265       .  A
O194       Co209   2.002   1_655  S
O195        C198   1.276       .  A
O195       Co212   1.997       .  S
O196        C197   1.276       .  A
O196       Co211   1.999       .  S
C197        C542   1.451       .  S
C198        C433   1.450       .  S
C199        C445   1.433       .  S
C200        C530   1.434       .  S
O201        C214   1.262       .  A
O201       Co209   1.961   1_655  S
O202        C215   1.267       .  A
O202       Co210   1.975       .  S
O203        C216   1.269       .  A
O203       Co211   1.996       .  S
O204        C217   1.267       .  A
O204       Co212   1.984       .  S
O205        C217   1.265       .  A
O205       Co210   1.974   1_655  S
O206        C216   1.260       .  A
O206       Co209   1.962       .  S
O207        C214   1.272       .  A
O207       Co212   2.002       .  S
O208        C215   1.272       .  A
O208       Co211   1.994       .  S
Co209       O213   2.096       .  S
Co210       O213   2.104       .  S
Co211       O213   2.092       .  S
Co212       O213   2.094   1_655  S
C214        C303   1.451       .  S
C215        C257   1.455       .  S
C216        C243   1.449       .  S
C217        C331   1.452       .  S
O218        C226   1.268       .  A
O218       Co238   2.009       .  S
O219        C227   1.268       .  A
O219       Co239   2.011   1_545  S
O220        C228   1.284       .  A
O220       Co240   2.023       .  S
O221        C229   1.272       .  A
O221       Co241   1.981       .  S
O222        C228   1.264       .  A
O222       Co239   2.003       .  S
O223        C229   1.265       .  A
O223       Co238   2.000   1_545  S
O224        C227   1.276       .  A
O224       Co241   1.993       .  S
O225        C226   1.284       .  A
O225       Co240   2.020       .  S
C226        C555   1.455       .  S
C227        C505   1.438       .  S
C228        C482   1.452       .  S
C229        C544   1.426       .  S
O230        C243   1.265       .  A
O230       Co238   1.964   1_545  S
O231        C244   1.262       .  A
O231       Co239   1.958       .  S
O232        C245   1.270       .  A
O232       Co240   1.995       .  S
O233        C246   1.266       .  A
O233       Co241   1.982       .  S
O234        C246   1.261       .  A
O234       Co239   1.959   1_545  S
O235        C245   1.265       .  A
O235       Co238   1.971       .  S
O236        C243   1.271       .  A
O236       Co241   1.997       .  S
O237        C244   1.274       .  A
O237       Co240   2.000       .  S
Co238       O242   2.098       .  S
Co239       O242   2.094       .  S
Co240       O242   2.093       .  S
Co241       O242   2.097   1_545  S
C246        C255   1.441       .  S
O247        C255   1.261       .  A
O247       Co267   1.965       .  S
O248        C256   1.282       .  A
O248       Co268   1.835   1_556  S
O249        C257   1.274       .  A
O249       Co269   1.995       .  S
O250        C258   1.258       .  A
O250       Co270   1.970       .  S
O251        C257   1.267       .  A
O251       Co268   1.966       .  S
O252        C258   1.263       .  A
O252       Co267   1.992   1_556  S
O253        C256   1.316       .  A
O253       Co270   2.139       .  S
O254        C255   1.267       .  A
O254       Co269   1.983       .  S
O259        C272   1.268       .  A
O259       Co267   2.005   1_556  S
O260        C273   1.279       .  A
O260       Co268   2.021       .  S
O261        C274   1.280       .  A
O261       Co269   1.988       .  S
O262        C275   1.244       .  A
O262       Co270   1.981       .  S
O263        C275   1.242       .  A
O263       Co268   2.042   1_556  S
O264        C274   1.271       .  A
O264       Co267   1.996       .  S
O265        C272   1.270       .  A
O265       Co270   1.990       .  S
O266        C273   1.281       .  A
O266       Co269   1.997       .  S
Co267       O271   2.065       .  S
Co268       O271   1.959       .  S
Co269       O271   2.055       .  S
Co270       O271   2.082   1_556  S
C272        C496   1.436       .  S
C273        C448   1.437       .  S
C274        C508   1.427       .  S
C275        C460   1.437       .  S
O276        C284   1.270       .  A
O276       Co296   2.017   1_545  S
O277        C285   1.267       .  A
O277       Co297   2.010       .  S
O278        C286   1.274       .  A
O278       Co298   1.991       .  S
O279        C287   1.282       .  A
O279       Co299   2.010       .  S
O280        C286   1.266       .  A
O280       Co297   2.007   1_545  S
O281        C287   1.266       .  A
O281       Co296   2.000       .  S
O282        C285   1.279       .  A
O282       Co299   2.002       .  S
O283        C284   1.275       .  A
O283       Co298   1.995       .  S
C284        C532   1.444       .  S
C285        C478   1.442       .  S
C286        C501   1.433       .  S
C287        C522   1.444       .  S
O288        C301   1.266       .  A
O288       Co296   1.965       .  S
O289        C302   1.260       .  A
O289       Co297   1.960   1_545  S
O290        C303   1.268       .  A
O290       Co298   1.989       .  S
O291        C304   1.272       .  A
O291       Co299   1.999       .  S
O292        C304   1.260       .  A
O292       Co297   1.959       .  S
O293        C303   1.264       .  A
O293       Co296   1.970   1_545  S
O294        C301   1.266       .  A
O294       Co299   1.970       .  S
O295        C302   1.274       .  A
O295       Co298   1.999       .  S
Co296       O300   2.094       .  S
Co297       O300   2.100       .  S
Co298       O300   2.086   1_545  S
Co299       O300   2.092       .  S
C302        C332   1.450       .  S
C304        C400   1.448       .  S
O305        C313   1.267       .  A
O305       Co325   2.010   1_554  S
O306        C314   1.269       .  A
O306       Co326   2.017       .  S
O307        C315   1.275       .  A
O307       Co327   1.989       .  S
O308        C316   1.275       .  A
O308       Co328   1.985       .  S
O309        C315   1.268       .  A
O309       Co326   2.008   1_554  S
O310        C316   1.268       .  A
O310       Co325   2.008       .  S
O311        C314   1.275       .  A
O311       Co328   1.997       .  S
O312        C313   1.280       .  A
O312       Co327   2.011       .  S
C313        C504   1.450       .  S
C314        C427   1.447       .  S
C315        C436   1.435       .  S
C316        C492   1.431       .  S
O317        C330   1.266       .  A
O317       Co325   1.966       .  S
O318        C331   1.262       .  A
O318       Co326   1.964   1_554  S
O319        C332   1.266       .  A
O319       Co327   1.976       .  S
O320        C333   1.270       .  A
O320       Co328   1.992       .  S
O321        C333   1.263       .  A
O321       Co326   1.970       .  S
O322        C332   1.267       .  A
O322       Co325   1.979   1_554  S
O323        C330   1.268       .  A
O323       Co328   1.986       .  S
O324        C331   1.273       .  A
O324       Co327   2.001       .  S
Co325       O329   2.101       .  S
Co326       O329   2.100       .  S
Co327       O329   2.090   1_554  S
Co328       O329   2.093       .  S
C330        C373   1.447       .  S
O334        C342   1.269       .  A
O334       Co354   2.015       .  S
O335        C343   1.269       .  A
O335       Co355   2.010   1_655  S
O336        C344   1.281       .  A
O336       Co356   2.018       .  S
O337        C345   1.277       .  A
O337       Co357   2.001       .  S
O338        C344   1.266       .  A
O338       Co355   2.009       .  S
O339        C345   1.265       .  A
O339       Co354   2.006   1_655  S
O340        C343   1.275       .  A
O340       Co357   1.987       .  S
O341        C342   1.275       .  A
O341       Co356   1.992       .  S
C342        C550   1.437       .  S
C343        C422   1.433       .  S
C344        C454   1.455       .  S
C345        C517   1.443       .  S
O346        C359   1.263       .  A
O346       Co354   1.969   1_655  S
O347        C360   1.265       .  A
O347       Co355   1.971       .  S
O348        C361   1.276       .  A
O348       Co356   2.016       .  S
O349        C362   1.269       .  A
O349       Co357   1.991       .  S
O350        C362   1.260       .  A
O350       Co355   1.955   1_655  S
O351        C361   1.256       .  A
O351       Co354   1.947       .  S
O352        C359   1.270       .  A
O352       Co357   1.991       .  S
O353        C360   1.267       .  A
O353       Co356   1.977       .  S
Co354       O358   2.097       .  S
Co355       O358   2.096       .  S
Co356       O358   2.094       .  S
Co357       O358   2.092   1_655  S
C359        C374   1.452       .  S
C362        C401   1.442       .  S
O363        C371   1.268       .  A
O363       Co383   1.965   1_545  S
O364        C372   1.261       .  A
O364       Co384   1.963       .  S
O365        C373   1.272       .  A
O365       Co385   1.998       .  S
O366        C374   1.270       .  A
O366       Co386   1.986       .  S
O367        C373   1.259       .  A
O367       Co384   1.958   1_545  S
O368        C374   1.267       .  A
O368       Co383   1.975       .  S
O369        C372   1.272       .  A
O369       Co386   2.001       .  S
O370        C371   1.265       .  A
O370       Co385   1.990       .  S
C372        C403   1.453       .  S
O375        C388   1.266       .  A
O375       Co383   2.003       .  S
O376        C389   1.270       .  A
O376       Co384   2.021   1_545  S
O377        C390   1.276       .  A
O377       Co385   1.990       .  S
O378        C391   1.283       .  A
O378       Co386   2.014       .  S
O379        C391   1.266       .  A
O379       Co384   2.007       .  S
O380        C390   1.266       .  A
O380       Co383   1.999   1_545  S
O381        C388   1.283       .  A
O381       Co386   2.018       .  S
O382        C389   1.273       .  A
O382       Co385   1.993       .  S
Co383       O387   2.098       .  S
Co384       O387   2.099       .  S
Co385       O387   2.098   1_545  S
Co386       O387   2.092       .  S
C388        C520   1.451       .  S
C389        C489   1.446       .  S
C390        C527   1.431       .  S
C391        C470   1.449       .  S
O392        C400   1.267       .  A
O392       Co412   1.970   1_554  S
O393        C401   1.263       .  A
O393       Co413   1.960       .  S
O394        C402   1.272       .  A
O394       Co414   2.003       .  S
O395        C403   1.268       .  A
O395       Co415   1.989       .  S
O396        C402   1.261       .  A
O396       Co413   1.965   1_554  S
O397        C403   1.267       .  A
O397       Co412   1.976       .  S
O398        C401   1.269       .  A
O398       Co415   1.993       .  S
O399        C400   1.269       .  A
O399       Co414   1.985       .  S
O404        C417   1.268       .  A
O404       Co412   2.008       .  S
O405        C418   1.270       .  A
O405       Co413   2.020   1_554  S
O406        C419   1.279       .  A
O406       Co414   2.006       .  S
O407        C420   1.268       .  A
O407       Co415   1.975       .  S
O408        C420   1.266       .  A
O408       Co413   2.005       .  S
O409        C419   1.266       .  A
O409       Co412   2.006   1_554  S
O410        C417   1.269       .  A
O410       Co415   1.974       .  S
O411        C418   1.277       .  A
O411       Co414   2.001       .  S
Co412       O416   2.098       .  S
Co413       O416   2.092       .  S
Co414       O416   2.092   1_554  S
Co415       O416   2.091       .  S
C417        C472   1.423       .  S
C418        C432   1.449       .  S
C419        C479   1.443       .  S
C420        C424   1.425       .  S
C421        C422   1.207       .  T
C423        C424   1.202       .  T
C425        C426   1.209       .  T
C427        C428   1.215       .  T
C429        C430   1.207       .  T
C431        C432   1.216       .  T
C433        C434   1.216       .  T
C435        C436   1.208       .  T
C437        C438   1.348   1_554  D
C437        H439   1.087       .  S
C438        H440   1.084       .  S
C441        C442   1.218       .  T
C443        C444   1.211       .  T
C445        C446   1.207       .  T
C447        C448   1.208       .  T
C449        C450   1.346   1_455  D
C449        H451   1.083       .  S
C450        H452   1.088       .  S
C453        C454   1.220       .  T
C455        C456   1.210       .  T
C457        C458   1.214       .  T
C459        C460   1.211       .  T
C461        C462   1.369   1_556  D
C461        H463   1.087       .  S
C462        H464   1.087       .  S
C465        C466   1.353   1_455  D
C465        H467   1.085       .  S
C466        H468   1.081       .  S
C469        C470   1.218       .  T
C471        C472   1.200       .  T
C473        C474   1.217       .  T
C475        C476   1.210       .  T
C477        C478   1.213       .  T
C479        C480   1.213       .  T
C481        C482   1.220       .  T
C483        C484   1.209       .  T
C485        C486   1.372   1_556  D
C485        H487   1.087       .  S
C486        H488   1.087       .  S
C489        C490   1.214       .  T
C491        C492   1.206       .  T
C493        C494   1.211       .  T
C495        C496   1.207       .  T
C497        C498   1.343   1_545  D
C497        H499   1.086       .  S
C498        H500   1.082       .  S
C501        C502   1.207       .  T
C503        C504   1.217       .  T
C505        C506   1.211       .  T
C507        C508   1.205       .  T
C509        C510   1.362   1_545  D
C509        H511   1.087       .  S
C510        H512   1.087       .  S
C513        C514   1.349   1_556  D
C513        H515   1.085       .  S
C514        H516   1.088   1_554  S
C517        C518   1.213       .  T
C519        C520   1.219       .  T
C521        C522   1.215       .  T
C523        C524   1.205       .  T
C525        C526   1.215       .  T
C527        C528   1.207       .  T
C529        C530   1.208       .  T
C531        C532   1.213       .  T
C533        C534   1.351   1_545  D
C533        H535   1.082       .  S
C534        H536   1.086       .  S
C537        C538   1.215       .  T
C539        C540   1.207       .  T
C541        C542   1.217       .  T
C543        C544   1.203       .  T
C545        C546   1.353   1_455  D
C545        H547   1.080       .  S
C546        H548   1.085   1_655  S
C549        C550   1.209       .  T
C551        C552   1.218       .  T
C553        C554   1.220       .  T
C555        C556   1.221       .  T
C557        C558   1.348   1_565  D
C557        H559   1.088       .  S
C558        H560   1.084       .  S
C561        C562   1.369   1_655  D
C561        H563   1.087       .  S
C562        H564   1.086       .  S
