geometry optimzed in LAMMPS
_audit_creation_date              2020-11-30 
_audit_creation_method            'lammps2cif' 
_symmetry_space_group_name_H-M    'P1' 
_symmetry_Int_Tables_number       1 
_symmetry_cell_setting            triclinic 
loop_ 
_symmetry_equiv_pos_as_xyz 
  x,y,z 
_cell_length_a                    28.94722592 
_cell_length_b                    29.180854737841916 
_cell_length_c                    39.561398559545204 
_cell_angle_alpha                 90.44257082557041 
_cell_angle_beta                  90.60729554640184 
_cell_angle_gamma                 119.85884464895253 
loop_ 
_atom_site_label 
_atom_site_type_symbol 
_atom_site_fract_x 
_atom_site_fract_y 
_atom_site_fract_z 
_atom_site_charge 
O1          O  0.45752998  0.36742202  0.31775318    -0.75700
O2          O  0.39171308  0.32883995  0.27823773    -0.54600
C3          C  0.41118019  0.33109384  0.30785790     0.78000
O4          O  0.50661569  0.58241701  0.33936309    -0.60300
O5          O  0.56227826  0.63501387  0.29940964    -0.53300
C6          C  0.54998811  0.62429534  0.33035275     0.70000
O7          O  0.35810413  0.41366961  0.31968068    -0.74900
O8          O  0.32929453  0.36914035  0.27004154    -0.55400
C9          C  0.32450873  0.37239058  0.30177662     0.76000
O10         O  0.60987775  0.51150380  0.32327149    -0.60000
O11         O  0.63125344  0.58987168  0.29902644    -0.53100
C12         C  0.63848012  0.56187045  0.32090558     0.72600
Zr13       Zr  0.53215907  0.44317866  0.29264972     2.54700
O14         O  0.55762742  0.41492370  0.34399184    -0.80600
O15         O  0.57600343  0.39576381  0.27181567    -0.94000
Zr16       Zr  0.43528878  0.50463484  0.30620515     2.64700
O17         O  0.40645714  0.49991044  0.36453480    -0.99000
O18         O  0.38062664  0.54639515  0.30138639    -0.81000
O19         O  0.45054110  0.43748306  0.29173654    -0.84400
O20         O  0.52324980  0.51740636  0.30561552    -2.19100
O21         O  0.61942395  0.55858090  0.17996821    -0.67800
O22         O  0.64225113  0.60768438  0.22824799    -0.52300
C23         C  0.65011969  0.60189495  0.19724937     0.71000
O24         O  0.37077875  0.46144160  0.17309166    -0.60700
O25         O  0.34246142  0.38472018  0.20108825    -0.52600
C26         C  0.33927686  0.41155664  0.17683320     0.72800
O27         O  0.51254374  0.62048094  0.18831295    -0.72100
O28         O  0.58150040  0.65061169  0.22615259    -0.50700
C29         C  0.56065022  0.65394289  0.19824613     0.74200
O30         O  0.45901643  0.39846294  0.15999905    -0.67400
O31         O  0.41646197  0.34375852  0.20185670    -0.54600
C32         C  0.42011466  0.35436646  0.17078224     0.72600
Zr33       Zr  0.53681730  0.46979662  0.19290035     2.77500
O34         O  0.56196817  0.46879339  0.13433846    -0.98100
O35         O  0.58559745  0.42181747  0.19599960    -0.79000
Zr36       Zr  0.44147350  0.53266128  0.20721780     2.70100
O37         O  0.41844275  0.56287820  0.15573583    -0.80200
O38         O  0.38414546  0.56524937  0.22836357    -0.99300
Zr39       Zr  0.41078970  0.40185452  0.24155765     2.21500
Zr40       Zr  0.56231419  0.57424448  0.25880772     2.11100
O41         O  0.52791507  0.54434531  0.20299727    -2.48000
O42         O  0.45424772  0.46166335  0.20040529    -0.80000
O43         O  0.57689350  0.50210838  0.24760900    -0.72200
O44         O  0.39532108  0.47375682  0.25176670    -2.33200
O45         O  0.49636641  0.40892651  0.23816670    -2.29400
O46         O  0.47666807  0.55788397  0.26068924    -0.74000
H47         H  0.53993262  0.52981045  0.32728220     0.78000
H48         H  0.35773801  0.46320223  0.25136988     0.79100
H49         H  0.54586966  0.56625792  0.18400038     0.81300
H50         H  0.49544278  0.37540567  0.23434204     0.79000
H51         H  0.34894720  0.52433345  0.31517135     0.42000
H52         H  0.40752263  0.60403831  0.23030783     0.41000
H53         H  0.44002714  0.55912188  0.13782969     0.40600
H54         H  0.55853140  0.49732682  0.12331541     0.38600
H55         H  0.62349338  0.44941466  0.19408843     0.41700
H56         H  0.56898797  0.36850500  0.28888379     0.36500
H57         H  0.53825955  0.42100579  0.36237402     0.42600
H58         H  0.42828755  0.48876871  0.37779018     0.39000
H59         H  0.60078773  0.48197352  0.13525666     0.43900
H60         H  0.61455889  0.42138896  0.27435665     0.42700
H61         H  0.41917135  0.53683460  0.37194539     0.42800
H62         H  0.35939866  0.56002560  0.20934269     0.43200
O63         O  0.06248753  0.42091918  0.32006006    -0.75700
O64         O  0.03951069  0.37611335  0.27039074    -0.54600
C65         C  0.05079135  0.37912347  0.30181079     0.78000
O66         O  0.92212599  0.53317231  0.32719379    -0.60300
O67         O  0.98266877  0.61068556  0.30371346    -0.53300
C68         C  0.94874410  0.58407699  0.32636438     0.70000
O69         O  0.91517894  0.38099660  0.31979682    -0.74900
O70         O  0.93654204  0.33920325  0.27983130    -0.55400
C71         C  0.92264452  0.34322559  0.30988890     0.76000
O72         O  0.09397464  0.59352141  0.33965287    -0.60000
O73         O  0.09989252  0.64345885  0.29611599    -0.53100
C74         C  0.09750102  0.63635644  0.32781407     0.72600
Zr75       Zr  0.07749432  0.51186776  0.30694824     2.54700
O76         O  0.09159396  0.50353728  0.36690427    -0.80600
O77         O  0.17328084  0.54630612  0.30422162    -0.94000
Zr78       Zr  0.91952142  0.45920924  0.29513532     2.64700
O79         O  0.85899062  0.42284268  0.34249816    -0.99000
O80         O  0.82853904  0.42398712  0.27388873    -0.81000
O81         O  0.99229258  0.44815611  0.29274024    -0.84400
O82         O  0.00607981  0.52999937  0.30767405    -2.19100
O83         O  0.11200126  0.62730456  0.18766459    -0.67800
O84         O  0.08256139  0.66229378  0.22761246    -0.52300
C85         C  0.10096767  0.66275194  0.19832573     0.71000
O86         O  0.93516023  0.40913459  0.16145796    -0.60700
O87         O  0.92878840  0.35179504  0.20118673    -0.52600
C88         C  0.93110266  0.36440321  0.17023809     0.72800
O89         O  0.93835559  0.57149596  0.18756559    -0.72100
O90         O  0.98668558  0.62857445  0.23026004    -0.50700
C91         C  0.95828844  0.61712333  0.20349339     0.74200
O92         O  0.08860299  0.46627205  0.17358542    -0.67400
O93         O  0.03814413  0.39025837  0.20188930    -0.54600
C94         C  0.06840979  0.41627009  0.17772527     0.72600
Zr95       Zr  0.09429816  0.53947931  0.20737121     2.77500
O96         O  0.14781051  0.56508452  0.15631834    -0.98100
O97         O  0.18442250  0.57060072  0.22886863    -0.79000
Zr98       Zr  0.93613708  0.48340467  0.19553864     2.70100
O99         O  0.92019807  0.49574668  0.13654695    -0.80200
O100        O  0.83917487  0.43867607  0.19653343    -0.99300
Zr101      Zr  0.99094085  0.41054757  0.24248366     2.21500
Zr102      Zr  0.02525306  0.58735571  0.26079047     2.11100
O103        O  0.02181557  0.55539479  0.20470911    -2.48000
O104        O  0.00831654  0.47122379  0.20169899    -0.80000
O105        O  0.09065418  0.56576933  0.26136252    -0.72200
O106        O  0.91501187  0.42206149  0.24057524    -2.33200
O107        O  0.08061838  0.47962018  0.25184343    -2.29400
O108        O  0.93571059  0.51876812  0.25031454    -0.74000
H109        H  0.00593308  0.54351958  0.33049515     0.78000
H110        H  0.88237657  0.38955964  0.23671952     0.79100
H111        H  0.02328567  0.57749558  0.18614670     0.81300
H112        H  0.10596116  0.46757761  0.25084441     0.79000
H113        H  0.81111050  0.38540795  0.27749357     0.42000
H114        H  0.83095465  0.46766055  0.19888959     0.41000
H115        H  0.95185445  0.49996918  0.12448615     0.40600
H116        H  0.12580457  0.56990116  0.13888989     0.38600
H117        H  0.20163050  0.60962656  0.22890262     0.41700
H118        H  0.17779563  0.51561872  0.30937037     0.36500
H119        H  0.06043502  0.50199390  0.37811945     0.42600
H120        H  0.88221738  0.43486584  0.36295351     0.39000
H121        H  0.17793961  0.60107549  0.16099151     0.43900
H122        H  0.18830734  0.56985847  0.32434577     0.42700
H123        H  0.83923309  0.44241649  0.34324867     0.42800
H124        H  0.82752402  0.42500898  0.17317260     0.43200
O125        O  0.36984551  0.91121198  0.31092792    -0.75700
O126        O  0.33319910  0.93783459  0.27075383    -0.54600
C127        C  0.33313840  0.92045466  0.30016999     0.78000
O128        O  0.60494587  0.07261763  0.33606210    -0.60300
O129        O  0.64332456  0.04355301  0.29831010    -0.53300
C130        C  0.64150844  0.06162822  0.32765288     0.70000
O131        O  0.44495316  0.06402747  0.33437708    -0.74900
O132        O  0.38040259  0.03861804  0.29397503    -0.55400
C133        C  0.39832220  0.05413617  0.32427600     0.76000
O134        O  0.51565306  0.89596595  0.30830851    -0.60000
O135        O  0.59067864  0.94056637  0.27721796    -0.53100
C136        C  0.56446885  0.91039256  0.30148407     0.72600
Zr137      Zr  0.44675867  0.91285677  0.28425045     2.54700
O138        O  0.41721879  0.85437072  0.33261624    -0.80600
O139        O  0.39498297  0.82617432  0.25716305    -0.94000
Zr140      Zr  0.52403858  0.06737774  0.30965937     2.64700
O141        O  0.52281302  0.07280242  0.37122861    -0.99000
O142        O  0.56784790  0.16338874  0.31246692    -0.81000
O143        O  0.44934873  0.99182150  0.29186256    -0.84400
O144        O  0.52823242  0.99001169  0.29878307    -2.19100
O145        O  0.54591723  0.94213317  0.16508532    -0.67800
O146        O  0.61211769  0.97453412  0.20486591    -0.52300
C147        C  0.59312106  0.95374634  0.17570352     0.71000
O148        O  0.47162795  0.10669264  0.18290166    -0.60700
O149        O  0.40405111  0.07687541  0.21991869    -0.52600
C150        C  0.42529013  0.09777161  0.19195051     0.71900
O151        O  0.63031190  0.11642115  0.18985887    -0.72100
O152        O  0.66148892  0.07750303  0.22549340    -0.50700
C153        C  0.66405181  0.10145257  0.19802130     0.74200
O154        O  0.39223669  0.94850084  0.15950480    -0.67400
O155        O  0.35164299  0.97368693  0.19808787    -0.54600
C156        C  0.35447447  0.95715756  0.16847100     0.72600
Zr157      Zr  0.46852558  0.94812544  0.18710449     2.77500
O158        O  0.46329411  0.94035855  0.12552146    -0.98100
O159        O  0.41995946  0.85191630  0.18543209    -0.79000
Zr160      Zr  0.54481424  0.10285764  0.21216360     2.70100
O161        O  0.57429633  0.16249377  0.16439421    -0.80200
O162        O  0.58422961  0.18928327  0.23988683    -0.99300
Zr163      Zr  0.41126393  0.00779605  0.24654870     2.21500
Zr164      Zr  0.58242852  0.00885505  0.25026305     2.11100
O165        O  0.54961090  0.02584283  0.19909731    -2.48000
O166        O  0.46837093  0.02360015  0.20346455    -0.80000
O167        O  0.50232054  0.92832052  0.23663721    -0.72200
O168        O  0.49062370  0.08840251  0.26040631    -2.33200
O169        O  0.41055427  0.92731044  0.23386409    -2.29400
O170        O  0.58158063  0.08859040  0.26249226    -0.74000
H171        H  0.54317044  0.98389772  0.31890167     0.78000
H172        H  0.48364988  0.11717621  0.26454745     0.79100
H173        H  0.57051040  0.03067689  0.17940252     0.81300
H174        H  0.37508236  0.89865877  0.22858667     0.79000
H175        H  0.53893191  0.17110219  0.31745151     0.42000
H176        H  0.62108847  0.20866375  0.23139759     0.41000
H177        H  0.56326292  0.13902641  0.14416192     0.40600
H178        H  0.49817257  0.96862068  0.11754664     0.38600
H179        H  0.38233446  0.84209695  0.18124185     0.41700
H180        H  0.35787556  0.81345516  0.26423344     0.36500
H181        H  0.42833977  0.87832914  0.35261334     0.42600
H182        H  0.52641760  0.04278022  0.37950090     0.39000
H183        H  0.46317394  0.90703210  0.12037069     0.43900
H184        H  0.40578170  0.80332162  0.26924530     0.42700
H185        H  0.55680301  0.10473027  0.37778666     0.42800
H186        H  0.56611355  0.20683235  0.22925483     0.43200
C187        C  0.05336354  0.11556137  0.36191412     0.79800
N188        N  0.10759946  0.14117922  0.35640503    -0.78500
C189        C  0.13306353  0.19091919  0.34307026     0.82200
N190        N  0.10529269  0.21509722  0.33611063    -0.78500
C191        C  0.05328896  0.19278450  0.34218204     0.82300
N192        N  0.02688424  0.14314702  0.35559545    -0.80200
C193        C  0.10350239  0.21733982  0.06442767     0.79800
N194        N  0.07564445  0.24220283  0.07197394    -0.78500
C195        C  0.10237356  0.29494669  0.07888934     0.82200
N196        N  0.15597927  0.32149038  0.07866719    -0.78500
C197        C  0.18383020  0.29612239  0.07529731     0.82300
N198        N  0.15744462  0.24362300  0.06781936    -0.80200
C199        C  0.08560237  0.85847798  0.06425227     0.79800
N200        N  0.13983761  0.89103842  0.06665054    -0.78500
C201        C  0.17090637  0.87660290  0.08415418     0.82200
N202        N  0.14759585  0.83058979  0.10033960    -0.78500
C203        C  0.09433618  0.79891297  0.10004315     0.82300
N204        N  0.06230375  0.81273070  0.08228594    -0.80200
C205        C  0.88993375  0.10102516  0.08602558     0.79800
N206        N  0.83880266  0.07911469  0.09688607    -0.78500
C207        C  0.81884131  0.11079234  0.10591182     0.82200
N208        N  0.84934077  0.16343948  0.10381546    -0.78500
C209        C  0.90035173  0.18654599  0.09439549     0.82300
N210        N  0.92169237  0.15525591  0.08600140    -0.80200
C211        C  0.89664918  0.12248983  0.43788220     0.79800
N212        N  0.92477908  0.16969539  0.42201872    -0.78500
C213        C  0.89758613  0.19045456  0.40597918     0.82200
N214        N  0.84401591  0.16435270  0.40542637    -0.78500
C215        C  0.81565614  0.11631183  0.41871467     0.82300
N216        N  0.84205287  0.09467440  0.43448898    -0.80200
C217        C  0.21662313  0.12297738  0.43958345     0.79800
N218        N  0.23999101  0.17233051  0.42602050    -0.78500
C219        C  0.28831461  0.19150281  0.41090752     0.82200
N220        N  0.31146922  0.16139205  0.40881476    -0.78500
C221        C  0.28671366  0.11104742  0.41867991     0.82300
N222        N  0.23867900  0.09144962  0.43375978    -0.80200
C223        C  0.09724234  0.88855867  0.41153564     0.79800
N224        N  0.07412696  0.83439784  0.40894401    -0.78500
C225        C  0.10433518  0.81223883  0.39937999     0.82200
N226        N  0.15604008  0.84410656  0.39286712    -0.78500
C227        C  0.17848764  0.89691722  0.39361684     0.82300
N228        N  0.14909700  0.91942678  0.40260581    -0.80200
C229        C  0.19572104  0.09897951  0.08775891     0.79800
N230        N  0.21622885  0.15254931  0.08780549    -0.78500
C231        C  0.26996551  0.18543504  0.09103311     0.82200
N232        N  0.30166513  0.16435734  0.09545414    -0.78500
C233        C  0.28170277  0.11200002  0.09870680     0.82300
N234        N  0.22848319  0.07893286  0.09440062    -0.80200
O235        O  0.05536483  0.12496011  0.07285630    -0.86900
O236        O  0.00772020  0.02568174  0.38955751    -0.87100
O237        O  0.13360046  0.11942874  0.45731327    -0.88700
O238        O  0.97467533  0.11669990  0.45571041    -0.87500
O239        O  0.89016203  0.05459406  0.47060421    -0.87100
O240        O  0.15405892  0.05587343  0.47213727    -0.88500
O241        O  0.04714586  0.10599835  0.41794709    -0.86900
O242        O  0.07537568  0.15892838  0.01901468    -0.86500
Zr243      Zr  0.03833511  0.08644460  0.47503258     2.84300
O244        O  0.95673524  0.01698291  0.45448117    -1.08500
O245        O  0.06736637  0.05734548  0.02279719    -1.09200
C246        C  0.07609865  0.16329752  0.05149963     1.06200
C247        C  0.03377689  0.07823298  0.39096051     1.06100
C248        C  0.16510749  0.09928337  0.45779742     1.09100
C249        C  0.92313225  0.09731359  0.45604171     1.06900
H250        H  0.07352475  0.02712241  0.43562835     0.32500
O251        O  0.04915841  0.01685948  0.45412662    -1.29500
H252        H  0.97570679  0.08853949  0.02597780     0.32100
O253        O  0.97882398  0.05801688  0.02061053    -1.31100
O254        O  0.92159130  0.85118956  0.43005277    -0.86900
O255        O  0.96741505  0.95092901  0.11129322    -0.88400
O256        O  0.09337722  0.93848270  0.45653563    -0.87000
O257        O  0.83408342  0.93894332  0.45312678    -0.87000
O258        O  0.88399849  0.04112580  0.04363973    -0.86700
O259        O  0.14137513  0.03775460  0.04725860    -0.86500
O260        O  0.00364149  0.85897292  0.04596937    -0.86900
O261        O  0.84740137  0.86121144  0.04726730    -0.86400
O262        O  0.08674412  0.92114223  0.02910486    -0.87400
O263        O  0.82593210  0.92362063  0.03119907    -0.86600
O264        O  0.02953372  0.91496974  0.41472473    -0.87000
O265        O  0.10083699  0.06393848  0.08654466    -0.86700
O266        O  0.94802349  0.06389816  0.08536115    -0.86400
O267        O  0.87605014  0.91641794  0.41251753    -0.86800
O268        O  0.90496197  0.81671173  0.48385100    -0.87100
O269        O  0.92850439  0.87059217  0.08283735    -0.88400
Zr270      Zr  0.96850673  0.94835809  0.43292687     2.83100
Zr271      Zr  0.00661290  0.02803103  0.06808329     2.83500
Zr272      Zr  0.07881381  0.98912751  0.00209934     2.84100
Zr273      Zr  0.89814789  0.98925137  0.00006242     2.83400
Zr274      Zr  0.93999406  0.88997925  0.02572494     2.84200
O275        O  0.92709179  0.95894177  0.04546899    -1.09000
O276        O  0.99862559  0.91946045  0.47957136    -1.08500
C277        C  0.90351508  0.81264937  0.45129921     1.06200
C278        C  0.94149336  0.89844462  0.10981344     1.08800
C279        C  0.07074223  0.91498059  0.42846096     1.06300
C280        C  0.83451679  0.91566649  0.42530958     1.06700
C281        C  0.90825953  0.06591645  0.07125035     1.06300
C282        C  0.14195436  0.06373549  0.07381008     1.05800
C283        C  0.05535971  0.87904022  0.04483547     1.06300
C284        C  0.81655157  0.88210009  0.04739261     1.05800
H285        H  0.03437198  0.95029152  0.06618111     0.32500
O286        O  0.02017621  0.96029628  0.04741236    -1.30100
H287        H  0.87495317  0.88781210  0.47315198     0.32500
O288        O  0.90884679  0.91818851  0.47936842    -1.31500
C289        C  0.76812820  0.86230451  0.06867035     0.79800
N290        N  0.74954528  0.89671680  0.07480410    -0.78500
C291        C  0.70486214  0.88155179  0.09297620     0.82200
N292        N  0.67986142  0.83291231  0.10559486    -0.78500
C293        C  0.69875971  0.79937446  0.10203971     0.82300
N294        N  0.74390862  0.81386969  0.08380765    -0.80200
C295        C  0.78199061  0.88300487  0.40885644     0.79800
N296        N  0.75610179  0.82894680  0.41124265    -0.78500
C297        C  0.70356013  0.79982464  0.40185497     0.82200
N298        N  0.67876426  0.82453799  0.38922819    -0.78500
C299        C  0.70423380  0.87706735  0.38545515     0.82300
N300        N  0.75601337  0.90693067  0.39537582    -0.80200
C301        C  0.92290819  0.86141225  0.13886741     0.79800
N302        N  0.86856789  0.83344872  0.14380881    -0.78500
C303        C  0.84482750  0.78334968  0.15651497     0.82200
N304        N  0.87450121  0.76114044  0.16350573    -0.78500
C305        C  0.92700829  0.78628523  0.15838734     0.82300
N306        N  0.95169874  0.83641755  0.14579390    -0.80200
C307        C  0.88256680  0.75948282  0.43748959     0.79800
N308        N  0.83259083  0.73240249  0.42356341    -0.78500
C309        C  0.81517662  0.68343592  0.40997385     0.82200
N310        N  0.84799184  0.66327284  0.40936089    -0.78500
C311        C  0.89835374  0.69095676  0.42145858     0.82300
N312        N  0.91596645  0.73949090  0.43537203    -0.80200
C313        C  0.70577619  0.93288314  0.14186097    -0.20700
C314        C  0.68980777  0.91863557  0.10806080    -0.07300
C315        C  0.64509928  0.92077052  0.09574593     0.13600
C316        C  0.61597277  0.93477082  0.11783648    -0.20800
C317        C  0.62873445  0.94408441  0.15269098    -0.07300
C318        C  0.67520844  0.94354789  0.16462445     0.13600
C319        C  0.69087866  0.94893894  0.20164397    -0.24100
H320        H  0.73903483  0.92923821  0.15147314     0.14900
H321        H  0.58148041  0.93589157  0.10801774     0.14900
C322        C  0.62663508  0.90539909  0.05961492    -0.24100
H323        H  0.72591945  0.94370350  0.20609740     0.05100
H324        H  0.65743693  0.91822661  0.21631113     0.08300
H325        H  0.70187458  0.98870580  0.21155347     0.08300
H326        H  0.61595707  0.86370290  0.05478364     0.08300
H327        H  0.65908538  0.93140370  0.04241391     0.08300
H328        H  0.59112649  0.90921427  0.05369155     0.05100
C329        C  0.73383484  0.10659504  0.11525687    -0.20700
C330        C  0.77136160  0.09295749  0.12643219    -0.07300
C331        C  0.77421843  0.08324144  0.16098448     0.13600
C332        C  0.74121144  0.08992759  0.18373701    -0.20800
C333        C  0.70370587  0.10445518  0.17292405    -0.07300
C334        C  0.69953613  0.11186284  0.13775253     0.13600
C335        C  0.65967188  0.12552648  0.12319547    -0.24100
H336        H  0.73346951  0.11603490  0.08882469     0.14900
H337        H  0.74495024  0.08362381  0.21033587     0.14900
C338        C  0.81404005  0.06842992  0.17421259    -0.24100
H339        H  0.66319807  0.13047709  0.09536261     0.05100
H340        H  0.66637587  0.16338665  0.13440125     0.08300
H341        H  0.61860164  0.09325980  0.12815539     0.08300
H342        H  0.85510806  0.10046580  0.16931430     0.08300
H343        H  0.80740142  0.03159252  0.16144805     0.08300
H344        H  0.81048709  0.06154200  0.20187202     0.05100
C345        C  0.68314398  0.08991894  0.38590663    -0.20700
C346        C  0.68276094  0.06798724  0.35388193    -0.07300
C347        C  0.72101688  0.05140718  0.34832059     0.13600
C348        C  0.75734325  0.05748794  0.37428223    -0.20800
C349        C  0.76120462  0.08475554  0.40436977    -0.07300
C350        C  0.72275040  0.09992276  0.41058360     0.13600
C351        C  0.72526883  0.12898909  0.44280219    -0.24100
H352        H  0.65409739  0.10201800  0.39116402     0.14900
H353        H  0.78785734  0.04719129  0.36924431     0.14900
C354        C  0.72737042  0.03063635  0.31464964    -0.24100
H355        H  0.69216161  0.13779782  0.44410598     0.05100
H356        H  0.76337981  0.16704954  0.44452405     0.08300
H357        H  0.72253277  0.10446263  0.46483359     0.08300
H358        H  0.73763056  0.06107680  0.29502227     0.08300
H359        H  0.69029134  0.99415962  0.30736900     0.08300
H360        H  0.75971811  0.02063573  0.31524541     0.05100
C361        C  0.63411665  0.88714787  0.30965249    -0.20700
C362        C  0.59607832  0.89706183  0.32442613    -0.07300
C363        C  0.59893292  0.90745572  0.35970476     0.13600
C364        C  0.63881894  0.90599572  0.37924407    -0.20800
C365        C  0.67690703  0.89675047  0.36420505    -0.07300
C366        C  0.67515332  0.88810583  0.32898348     0.13600
C367        C  0.71629297  0.87916528  0.31180842    -0.24100
H368        H  0.63297597  0.88084219  0.28252673     0.14900
H369        H  0.63954560  0.91068207  0.40649695     0.14900
C370        C  0.56153808  0.92172327  0.37692503    -0.24100
H371        H  0.71021089  0.87524409  0.28392635     0.05100
H372        H  0.71397430  0.84238052  0.32108130     0.08300
H373        H  0.75664679  0.91314415  0.31730723     0.08300
H374        H  0.51978094  0.88942508  0.37327825     0.08300
H375        H  0.56645884  0.95900391  0.36660456     0.08300
H376        H  0.56976851  0.92811275  0.40455955     0.05100
C377        C  0.38753663  0.08584856  0.13422781    -0.20700
C378        C  0.39110851  0.10518367  0.16745208    -0.07300
C379        C  0.35521313  0.12191518  0.17783059     0.13600
C380        C  0.31572335  0.11698681  0.15519403    -0.20800
C381        C  0.31266722  0.09862347  0.12192786    -0.07300
C382        C  0.34896693  0.08303303  0.11111572     0.13600
C383        C  0.34688719  0.06352702  0.07552604    -0.24100
H384        H  0.41412295  0.07165786  0.12659612     0.14900
H385        H  0.28875064  0.13077237  0.16283647     0.14900
C386        C  0.35902246  0.14654516  0.21219169    -0.24100
H387        H  0.37770899  0.05203661  0.07145442     0.05100
H388        H  0.35364365  0.09503668  0.05739660     0.08300
H389        H  0.30721996  0.02837726  0.07028324     0.08300
H390        H  0.39923326  0.18162183  0.21597595     0.08300
H391        H  0.35113376  0.11773676  0.23243761     0.08300
H392        H  0.32917142  0.15959858  0.21491924     0.05100
C393        C  0.31159479  0.92490341  0.11114819    -0.20700
C394        C  0.31130676  0.94699557  0.14298655    -0.07300
C395        C  0.26875890  0.95704359  0.14971949     0.13600
C396        C  0.22791290  0.94284865  0.12549682    -0.20800
C397        C  0.22521503  0.91479531  0.09605660    -0.07300
C398        C  0.26841302  0.90740093  0.08816448     0.13600
C399        C  0.26749637  0.87871140  0.05613961    -0.24100
H400        H  0.34400385  0.91800273  0.10494651     0.14900
H401        H  0.19385269  0.94718394  0.13171365     0.14900
C402        C  0.26240779  0.97824853  0.18317892    -0.24100
H403        H  0.30427270  0.87605629  0.05359928     0.05100
H404        H  0.26422163  0.90012643  0.03399038     0.08300
H405        H  0.23291662  0.83791056  0.05593968     0.08300
H406        H  0.29773574  0.01696126  0.18919228     0.08300
H407        H  0.25652026  0.94968650  0.20326092     0.08300
H408        H  0.22727971  0.98403963  0.18326884     0.05100
C409        C  0.21237056  0.91969544  0.33771024    -0.20700
C410        C  0.22487447  0.92360767  0.37227218    -0.07300
C411        C  0.27362275  0.92852252  0.38291495     0.13600
C412        C  0.30780756  0.92684784  0.35877551    -0.20800
C413        C  0.29336388  0.91833137  0.32424405    -0.07300
C414        C  0.24464637  0.91470342  0.31361064     0.13600
C415        C  0.22438926  0.90255735  0.27748863    -0.24100
H416        H  0.17383472  0.91414610  0.32992682     0.14900
H417        H  0.34575641  0.93159854  0.36709089     0.14900
C418        C  0.28828265  0.93331683  0.41990313    -0.24100
H419        H  0.18309318  0.89551726  0.27488813     0.05100
H420        H  0.22419364  0.86641259  0.26828617     0.08300
H421        H  0.24964062  0.93638366  0.26123683     0.08300
H422        H  0.25953408  0.89698966  0.43318550     0.08300
H423        H  0.28722876  0.96768049  0.43120680     0.08300
H424        H  0.32888579  0.93909545  0.42396343     0.05100
C425        C  0.37803826  0.06603984  0.38440180    -0.20700
C426        C  0.36304777  0.05992431  0.34978967    -0.07300
C427        C  0.31520071  0.05984836  0.34091445     0.13600
C428        C  0.28505919  0.06618492  0.36630944    -0.20800
C429        C  0.30302273  0.07736511  0.40004515    -0.07300
C430        C  0.34955068  0.07619169  0.40927426     0.13600
C431        C  0.37004555  0.08751190  0.44525150    -0.24100
H432        H  0.41363149  0.06518052  0.39204580     0.14900
H433        H  0.25032074  0.06902738  0.35908113     0.14900
C434        C  0.29742550  0.05804983  0.30472412    -0.24100
H435        H  0.40651670  0.08436301  0.44854092     0.05100
H436        H  0.33910165  0.05872026  0.46225365     0.08300
H437        H  0.37984883  0.12810427  0.45286570     0.08300
H438        H  0.28791396  0.02009445  0.29245868     0.08300
H439        H  0.32935280  0.09147792  0.29079672     0.08300
H440        H  0.26107210  0.06168004  0.30275683     0.05100
C441        C  0.08796233  0.77449162  0.15874041    -0.20700
C442        C  0.07556119  0.75681684  0.12496394    -0.07300
C443        C  0.07048428  0.70789019  0.11578201     0.13600
C444        C  0.08074857  0.67906486  0.14004524    -0.20800
C445        C  0.09744054  0.69867928  0.17330772    -0.07300
C446        C  0.09996313  0.74681258  0.18287167     0.13600
C447        C  0.11842301  0.77119524  0.21770604    -0.24100
H448        H  0.09358890  0.81310751  0.16538939     0.14900
H449        H  0.07579938  0.64095110  0.13283835     0.14900
C450        C  0.05674073  0.68752513  0.07989337    -0.24100
H451        H  0.12386029  0.81161940  0.21927084     0.05100
H452        H  0.15730047  0.77420135  0.22408393     0.08300
H453        H  0.08861829  0.74731234  0.23686695     0.08300
H454        H  0.08811701  0.71519385  0.06266473     0.08300
H455        H  0.01803963  0.68398813  0.07233567     0.08300
H456        H  0.05331716  0.64806914  0.07690893     0.05100
C457        C  0.96003704  0.74950680  0.20036464    -0.20700
C458        C  0.95262260  0.75455112  0.16600406    -0.07300
C459        C  0.94566194  0.71328317  0.14360816     0.13600
C460        C  0.94746528  0.66882060  0.15604650    -0.20800
C461        C  0.95240317  0.66255308  0.19083655    -0.07300
C462        C  0.95796407  0.70388510  0.21331007     0.13600
C463        C  0.95786217  0.69953139  0.25140883    -0.24100
H464        H  0.96183987  0.77935710  0.21772641     0.14900
H465        H  0.94382984  0.63837763  0.13857994     0.14900
C466        C  0.93289690  0.71465538  0.10677678    -0.24100
H467        H  0.95390980  0.73137232  0.26426945     0.05100
H468        H  0.99582780  0.70328423  0.26079253     0.08300
H469        H  0.92360136  0.66129691  0.25919325     0.08300
H470        H  0.96413504  0.75151895  0.09543843     0.08300
H471        H  0.89407251  0.71338739  0.10404439     0.08300
H472        H  0.93033007  0.68058755  0.09242025     0.05100
C473        C  0.95368355  0.66614418  0.34720412    -0.20700
C474        C  0.94394738  0.61512553  0.35433789    -0.07300
C475        C  0.93593633  0.59803869  0.38834824     0.13600
C476        C  0.93124727  0.62981306  0.41327865    -0.20800
C477        C  0.93501790  0.67801052  0.40497843    -0.07300
C478        C  0.95030001  0.69817517  0.37220661     0.13600
C479        C  0.95753313  0.75142716  0.36266476    -0.24100
H480        H  0.96253587  0.68064896  0.32166448     0.14900
H481        H  0.91897248  0.61452637  0.43848084     0.14900
C482        C  0.93089906  0.54621234  0.39867117    -0.24100
H483        H  0.96486471  0.75915897  0.33529583     0.05100
H484        H  0.99121872  0.78287918  0.37708232     0.08300
H485        H  0.92218836  0.75472806  0.36874369     0.08300
H486        H  0.96583821  0.54357664  0.38995489     0.08300
H487        H  0.89366112  0.51326759  0.38773543     0.08300
H488        H  0.92892767  0.54168858  0.42655984     0.05100
C489        C  0.08791134  0.71975062  0.40189509    -0.20700
C490        C  0.08276049  0.75864246  0.38397301    -0.07300
C491        C  0.08045565  0.75499341  0.34822053     0.13600
C492        C  0.08535255  0.71508066  0.33169839    -0.20800
C493        C  0.09280014  0.67716335  0.34918832    -0.07300
C494        C  0.09229870  0.67882603  0.38505390     0.13600
C495        C  0.09892836  0.63943192  0.40575068    -0.24100
H496        H  0.09232666  0.72358449  0.42916789     0.14900
H497        H  0.08405857  0.71463439  0.30430077     0.14900
C498        C  0.07730726  0.79545380  0.32618774    -0.24100
H499        H  0.09929038  0.64737028  0.43327768     0.05100
H500        H  0.13718929  0.64137690  0.39957844     0.08300
H501        H  0.06537971  0.59901536  0.40036010     0.08300
H502        H  0.11434657  0.81667155  0.31144305     0.08300
H503        H  0.07192170  0.82497491  0.34076122     0.08300
H504        H  0.04326050  0.77529296  0.30810349     0.05100
C505        C  0.91761450  0.27870520  0.09134021    -0.20700
C506        C  0.93166131  0.24276874  0.10534185    -0.07300
C507        C  0.95255095  0.25254292  0.13855913     0.13600
C508        C  0.95243817  0.29279853  0.15813956    -0.20800
C509        C  0.93402081  0.32618452  0.14543288    -0.07300
C510        C  0.91935413  0.32071687  0.11076009     0.13600
C511        C  0.90228520  0.35656621  0.09469457    -0.24100
H512        H  0.90039397  0.27082829  0.06604513     0.14900
H513        H  0.96530650  0.29665035  0.18430463     0.14900
C514        C  0.96927257  0.21633870  0.15485068    -0.24100
H515        H  0.89079756  0.34596911  0.06767956     0.05100
H516        H  0.93569636  0.39797762  0.09591227     0.08300
H517        H  0.86746957  0.35369358  0.10812249     0.08300
H518        H  0.99894519  0.21328493  0.13890359     0.08300
H519        H  0.93435088  0.17633706  0.15752779     0.08300
H520        H  0.98732810  0.23084253  0.18037119     0.05100
C521        C  0.06798003  0.39101137  0.11798927    -0.20700
C522        C  0.07723136  0.38495979  0.15217191    -0.07300
C523        C  0.08794989  0.34453430  0.16163434     0.13600
C524        C  0.08915537  0.31134324  0.13659793    -0.20800
C525        C  0.08063425  0.31767726  0.10241588    -0.07300
C526        C  0.06991530  0.35778930  0.09288826     0.13600
C527        C  0.06099327  0.36549810  0.05636694    -0.24100
H528        H  0.05842829  0.42122799  0.11101293     0.14900
H529        H  0.09973020  0.28179010  0.14351025     0.14900
C530        C  0.10026942  0.33733841  0.19776921    -0.24100
H531        H  0.05229024  0.39826461  0.05327174     0.05100
H532        H  0.02659759  0.32870004  0.04597963     0.08300
H533        H  0.09704026  0.37489702  0.04167109     0.08300
H534        H  0.06471300  0.32448317  0.21364698     0.08300
H535        H  0.13370633  0.37498421  0.20798028     0.08300
H536        H  0.11196858  0.30654441  0.19979595     0.05100
C537        C  0.02407100  0.28382413  0.29414598    -0.20700
C538        C  0.04537024  0.32868805  0.31608811    -0.07300
C539        C  0.05762983  0.32191129  0.34980788     0.13600
C540        C  0.04980980  0.27200152  0.35986857    -0.20800
C541        C  0.03161477  0.22869669  0.33705459    -0.07300
C542        C  0.01783483  0.23505652  0.30392551     0.13600
C543        C  0.00027484  0.19206329  0.27730857    -0.24100
H544        H  0.01285540  0.28641256  0.26832861     0.14900
H545        H  0.06308933  0.26821529  0.38488466     0.14900
C546        C  0.08195470  0.36733559  0.37477783    -0.24100
H547        H  0.96184833  0.18414069  0.26571919     0.05100
H548        H  0.99441934  0.15441290  0.28777887     0.08300
H549        H  0.03067081  0.20505972  0.25726789     0.08300
H550        H  0.12017683  0.39933616  0.36497218     0.08300
H551        H  0.09025093  0.35522119  0.39961975     0.08300
H552        H  0.05446848  0.38275234  0.37915578     0.05100
C553        C  0.90823580  0.25451995  0.32420209    -0.20700
C554        C  0.92026912  0.30508209  0.33529336    -0.07300
C555        C  0.93627196  0.32023582  0.36963118     0.13600
C556        C  0.93661272  0.28345112  0.39207786    -0.20800
C557        C  0.92136864  0.23224299  0.38122863    -0.07300
C558        C  0.90849785  0.21795971  0.34672039     0.13600
C559        C  0.89182154  0.16282837  0.33399296    -0.24100
H560        H  0.89746734  0.24310022  0.29790284     0.14900
H561        H  0.94486687  0.29341971  0.41875214     0.14900
C562        C  0.95295721  0.37481482  0.38322694    -0.24100
H563        H  0.88624841  0.15934371  0.30609974     0.05100
H564        H  0.85351839  0.13376829  0.34513597     0.08300
H565        H  0.92253763  0.15226180  0.34094736     0.08300
H566        H  0.91838286  0.38133396  0.38292906     0.08300
H567        H  0.98544340  0.40509215  0.36780412     0.08300
H568        H  0.96793122  0.38032361  0.40975765     0.05100
C569        C  0.64518829  0.68684234  0.34451315    -0.20700
C570        C  0.59182427  0.66067402  0.35542409    -0.07300
C571        C  0.58167833  0.67155332  0.38852174     0.13600
C572        C  0.62357445  0.71262986  0.40770032    -0.20800
C573        C  0.67538482  0.74254310  0.39474606    -0.07300
C574        C  0.68684637  0.72645581  0.36390965     0.13600
C575        C  0.74207339  0.75559694  0.34946597    -0.24100
H576        H  0.65447062  0.67873008  0.31956619     0.14900
H577        H  0.61449760  0.72546828  0.43124776     0.14900
C578        C  0.52648202  0.64317202  0.40268605    -0.24100
H579        H  0.74462063  0.73763422  0.32520881     0.05100
H580        H  0.77092889  0.75486973  0.36779812     0.08300
H581        H  0.75395476  0.79734658  0.34462387     0.08300
H582        H  0.51282040  0.60037019  0.40455488     0.08300
H583        H  0.49866910  0.64885889  0.38604027     0.08300
H584        H  0.52533010  0.65811430  0.42838816     0.05100
C585        C  0.73088312  0.62796320  0.33152186    -0.20700
C586        C  0.68235685  0.59101980  0.34501712    -0.07300
C587        C  0.67570142  0.58763875  0.38047906     0.13600
C588        C  0.71906840  0.62102580  0.40165334    -0.20800
C589        C  0.76803720  0.65733811  0.38789569    -0.07300
C590        C  0.77401740  0.66047568  0.35238623     0.13600
C591        C  0.82606919  0.69691449  0.33599411    -0.24100
H592        H  0.73523143  0.63075844  0.30428420     0.14900
H593        H  0.71528507  0.61781547  0.42888451     0.14900
C594        C  0.62303132  0.55009355  0.39595569    -0.24100
H595        H  0.84145947  0.73796901  0.34539214     0.05100
H596        H  0.82201933  0.69710796  0.30804132     0.08300
H597        H  0.85450193  0.68295346  0.34151600     0.08300
H598        H  0.61177576  0.50877125  0.38938813     0.08300
H599        H  0.59184095  0.55851385  0.38642514     0.08300
H600        H  0.62475504  0.55395314  0.42396266     0.05100
C601        C  0.76067204  0.70377586  0.13909493    -0.20700
C602        C  0.78694633  0.74797618  0.16116186    -0.07300
C603        C  0.76610239  0.74449228  0.19352505     0.13600
C604        C  0.72145528  0.69720902  0.20345515    -0.20800
C605        C  0.69646636  0.65113394  0.18242398    -0.07300
C606        C  0.71602175  0.65561712  0.14920783     0.13600
C607        C  0.69211046  0.60950838  0.12482793    -0.24100
H608        H  0.77806710  0.70553707  0.11466846     0.14900
H609        H  0.70726578  0.69642178  0.22875498     0.14900
C610        C  0.79319110  0.78983182  0.21858285    -0.24100
H611        H  0.71329145  0.61949972  0.10039939     0.05100
H612        H  0.64980969  0.59744309  0.11950404     0.08300
H613        H  0.69477405  0.57595345  0.13575016     0.08300
H614        H  0.79530005  0.82581694  0.20778610     0.08300
H615        H  0.83416754  0.79777275  0.22439674     0.08300
H616        H  0.77137666  0.78129296  0.24274374     0.05100
C617        C  0.59592116  0.67394384  0.14003386    -0.20700
C618        C  0.59794437  0.69203565  0.17352934    -0.07300
C619        C  0.64112362  0.74167403  0.18362401     0.13600
C620        C  0.67983704  0.77198856  0.15998455    -0.20800
C621        C  0.67570233  0.75569089  0.12599136    -0.07300
C622        C  0.63374588  0.70565419  0.11604661     0.13600
C623        C  0.62784528  0.68684107  0.07990523    -0.24100
H624        H  0.56448284  0.63481447  0.13251704     0.14900
H625        H  0.71120454  0.81134878  0.16728769     0.14900
C626        C  0.64543312  0.76444651  0.21867192    -0.24100
H627        H  0.59331078  0.64633807  0.07637318     0.05100
H628        H  0.66439574  0.68629301  0.07232595     0.08300
H629        H  0.62177893  0.71376785  0.06310849     0.08300
H630        H  0.65294633  0.74120956  0.23774794     0.08300
H631        H  0.60807945  0.76451665  0.22464232     0.08300
H632        H  0.67884092  0.80581854  0.22089375     0.05100
C633        C  0.31295401  0.39396352  0.11632703    -0.20700
C634        C  0.29919805  0.38125291  0.15034316    -0.07300
C635        C  0.25003893  0.33607667  0.15812975     0.13600
C636        C  0.21747318  0.30383947  0.13177876    -0.20800
C637        C  0.23015227  0.31760478  0.09790218    -0.07300
C638        C  0.27818225  0.36319605  0.08997243     0.13600
C639        C  0.29197684  0.37962094  0.05386123    -0.24100
H640        H  0.35090391  0.42809658  0.11034710     0.14900
H641        H  0.17909985  0.27006901  0.13763962     0.14900
C642        C  0.22947653  0.32329950  0.19377600    -0.24100
H643        H  0.33181365  0.41554172  0.05196455     0.05100
H644        H  0.26195871  0.38821241  0.04245233     0.08300
H645        H  0.29232082  0.34729742  0.03916248     0.08300
H646        H  0.23035832  0.35829936  0.20570854     0.08300
H647        H  0.25342414  0.31106876  0.20919943     0.08300
H648        H  0.18774350  0.29011874  0.19423893     0.05100
C649        C  0.28530235  0.23970513  0.13986997    -0.20700
C650        C  0.29313766  0.23929338  0.10520223    -0.07300
C651        C  0.33971937  0.28120916  0.09135394     0.13600
C652        C  0.37888827  0.32051819  0.11289137    -0.20800
C653        C  0.37513109  0.31560525  0.14826090    -0.07300
C654        C  0.32694423  0.27351175  0.16178608     0.13600
C655        C  0.31940021  0.25934619  0.19886155    -0.24100
H656        H  0.24984830  0.20689904  0.15035485     0.14900
H657        H  0.41444606  0.35254665  0.10209060     0.14900
C658        C  0.34963830  0.28185054  0.05406766    -0.24100
H659        H  0.28002539  0.22418937  0.20386668     0.05100
H660        H  0.32205353  0.29208882  0.21455760     0.08300
H661        H  0.35002981  0.24951728  0.20739094     0.08300
H662        H  0.31558866  0.27974452  0.03959716     0.08300
H663        H  0.35392772  0.24731268  0.04691812     0.08300
H664        H  0.38650625  0.31830819  0.04682879     0.05100
C665        C  0.30108127  0.21262057  0.35180363    -0.20700
C666        C  0.30717733  0.23227274  0.38514361    -0.07300
C667        C  0.34691302  0.28439788  0.39266271     0.13600
C668        C  0.38037562  0.31535845  0.36678378    -0.20800
C669        C  0.37622451  0.29464006  0.33381735    -0.07300
C670        C  0.33625872  0.24223490  0.32636054     0.13600
C671        C  0.33242961  0.21594648  0.29261590    -0.24100
H672        H  0.27170652  0.17160389  0.34654783     0.14900
H673        H  0.41019036  0.35601959  0.37244858     0.14900
C674        C  0.35469474  0.30668436  0.42803754    -0.24100
H675        H  0.30106682  0.17359255  0.29235512     0.05100
H676        H  0.37097502  0.21811927  0.28704590     0.08300
H677        H  0.32223879  0.23522879  0.27219418     0.08300
H678        H  0.36465751  0.28323972  0.44558157     0.08300
H679        H  0.31746309  0.30521436  0.43633553     0.08300
H680        H  0.38743030  0.34844215  0.42953930     0.05100
C681        C  0.21711584  0.26989762  0.36076603    -0.20700
C682        C  0.19128043  0.22513837  0.33905561    -0.07300
C683        C  0.21244311  0.22822529  0.30685751     0.13600
C684        C  0.25505569  0.27642667  0.29600896    -0.20800
C685        C  0.27953008  0.32269710  0.31681865    -0.07300
C686        C  0.26102068  0.31823880  0.35027226     0.13600
C687        C  0.28516986  0.36463042  0.37448686    -0.24100
H688        H  0.19984142  0.26835381  0.38520205     0.14900
H689        H  0.26883113  0.27753535  0.27055069     0.14900
C690        C  0.18826420  0.18082735  0.28330291    -0.24100
H691        H  0.26497985  0.35452417  0.39924841     0.05100
H692        H  0.28155091  0.39777979  0.36377914     0.08300
H693        H  0.32779192  0.37754131  0.37921022     0.08300
H694        H  0.14603359  0.16854430  0.27747170     0.08300
H695        H  0.19015204  0.14763169  0.29550113     0.08300
H696        H  0.20985687  0.18923606  0.25906759     0.05100
O697        O  0.46109679  0.36583636  0.81766475    -0.75700
O698        O  0.39656676  0.32501326  0.77760615    -0.54600
C699        C  0.41547078  0.32819951  0.80753309     0.78000
O700        O  0.50725166  0.58212938  0.83832065    -0.60300
O701        O  0.56312640  0.63427513  0.79823577    -0.53300
C702        C  0.55047294  0.62422197  0.82918649     0.70000
O703        O  0.36274751  0.41204015  0.82076613    -0.74900
O704        O  0.33401621  0.36538569  0.77178201    -0.55400
C705        C  0.32958082  0.37006106  0.80349361     0.76000
O706        O  0.61346228  0.51387395  0.82167656    -0.60000
O707        O  0.63355322  0.59119354  0.79626691    -0.53100
C708        C  0.64117184  0.56418721  0.81862887     0.72600
Zr709      Zr  0.53537227  0.44326864  0.79300399     2.54700
O710        O  0.55741407  0.41714438  0.84645524    -0.80600
O711        O  0.58261172  0.39776460  0.77537585    -0.94000
Zr712      Zr  0.43709668  0.50241994  0.80554363     2.64700
O713        O  0.40997308  0.49481680  0.86440928    -0.99000
O714        O  0.37789283  0.53925855  0.80183733    -0.81000
O715        O  0.45327402  0.43578676  0.79117577    -0.84400
O716        O  0.52546119  0.51720990  0.80502019    -2.19100
O717        O  0.62287328  0.55577198  0.67935130    -0.67800
O718        O  0.64012919  0.61025251  0.72469458    -0.52300
C719        C  0.65106391  0.60100675  0.69516924     0.71000
O720        O  0.37188194  0.45606379  0.67252907    -0.60700
O721        O  0.34660462  0.37885464  0.69934390    -0.52600
C722        C  0.34206932  0.40579373  0.67559321     0.72800
O723        O  0.51143159  0.61574157  0.68664164    -0.72100
O724        O  0.57891153  0.64902496  0.72538955    -0.50700
C725        C  0.55869229  0.65079856  0.69686238     0.74200
O726        O  0.46504493  0.39728764  0.65930132    -0.67400
O727        O  0.42478497  0.34256567  0.70135581    -0.54600
C728        C  0.42702209  0.35306121  0.67029015     0.72600
Zr729      Zr  0.54062704  0.46807786  0.69309244     2.77500
O730        O  0.56576056  0.46728743  0.63447872    -0.98100
O731        O  0.58911823  0.41995972  0.69819225    -0.79000
Zr732      Zr  0.44232618  0.52796574  0.70621088     2.70100
O733        O  0.41996757  0.55801843  0.65441717    -0.80200
O734        O  0.38631949  0.56223026  0.72696292    -0.99300
Zr735      Zr  0.41404916  0.39796242  0.74122845     2.21500
Zr736      Zr  0.56268854  0.57317346  0.75765308     2.11100
O737        O  0.52960859  0.54169803  0.70203806    -2.48000
O738        O  0.45724310  0.45820322  0.70027587    -0.80000
O739        O  0.57954920  0.50216734  0.74773261    -0.72200
O740        O  0.39716360  0.46920570  0.75107088    -2.33200
O741        O  0.50082305  0.40750291  0.73868884    -2.29400
O742        O  0.47671083  0.55515601  0.75961602    -0.74000
H743        H  0.54262563  0.53094083  0.82682749     0.78000
H744        H  0.35961423  0.45798987  0.75058337     0.79100
H745        H  0.54785965  0.56375723  0.68325731     0.81300
H746        H  0.50135181  0.37463171  0.73555754     0.79000
H747        H  0.35223578  0.52241902  0.82030524     0.42000
H748        H  0.40597352  0.60026486  0.72149066     0.41000
H749        H  0.44005543  0.55210129  0.63643271     0.40600
H750        H  0.56682109  0.49861764  0.62419512     0.38600
H751        H  0.62431006  0.44605715  0.70791896     0.41700
H752        H  0.56248710  0.36226097  0.78541026     0.36500
H753        H  0.53776104  0.42505309  0.86373432     0.42600
H754        H  0.43839341  0.49310202  0.87751296     0.39000
H755        H  0.60346369  0.47597726  0.63565830     0.43900
H756        H  0.61660691  0.41551511  0.78841745     0.42700
H757        H  0.41389509  0.52954158  0.87059650     0.42800
H758        H  0.35502573  0.54687288  0.71138064     0.43200
O759        O  0.06076164  0.42186973  0.82046359    -0.75700
O760        O  0.03692809  0.37502070  0.77148796    -0.54600
C761        C  0.04923685  0.37949806  0.80281527     0.78000
O762        O  0.91908099  0.53416883  0.82533821    -0.60300
O763        O  0.97983782  0.61145382  0.80181188    -0.53300
C764        C  0.94547658  0.58512029  0.82434508     0.70000
O765        O  0.91317873  0.38190535  0.81916681    -0.74900
O766        O  0.93435506  0.33949555  0.77956552    -0.55400
C767        C  0.92047547  0.34394071  0.80953574     0.76000
O768        O  0.09023936  0.59391382  0.83906450    -0.60000
O769        O  0.09539023  0.64430199  0.79584044    -0.53100
C770        C  0.09315859  0.63670736  0.82750732     0.72600
Zr771      Zr  0.07570692  0.51273512  0.80623549     2.54700
O772        O  0.09563758  0.50789183  0.86573636    -0.80600
O773        O  0.17141220  0.54804398  0.80148062    -0.94000
Zr774      Zr  0.91766167  0.45975677  0.79414840     2.64700
O775        O  0.85850567  0.42511314  0.84225712    -0.99000
O776        O  0.82686172  0.42336429  0.77223713    -0.81000
O777        O  0.99065005  0.44870463  0.79221312    -0.84400
O778        O  0.00392093  0.53060548  0.80668415    -2.19100
O779        O  0.11002087  0.62568576  0.68596999    -0.67800
O780        O  0.08183138  0.66132485  0.72620096    -0.52300
C781        C  0.09958949  0.66143852  0.69675622     0.71000
O782        O  0.93483133  0.40708161  0.66155650    -0.60700
O783        O  0.92705794  0.35050048  0.70211636    -0.52600
C784        C  0.93024563  0.36239220  0.67104795     0.72800
O785        O  0.93662581  0.56983247  0.68522170    -0.72100
O786        O  0.98276083  0.62685748  0.72839807    -0.50700
C787        C  0.95572969  0.61555195  0.70103349     0.74200
O788        O  0.08656272  0.46476315  0.67230235    -0.67400
O789        O  0.03691357  0.38927306  0.70115919    -0.54600
C790        C  0.06637913  0.41472259  0.67646541     0.72600
Zr791      Zr  0.09219158  0.53821218  0.70619191     2.77500
O792        O  0.14008111  0.56145324  0.65290453    -0.98100
O793        O  0.18365457  0.57125658  0.72566169    -0.79000
Zr794      Zr  0.93428267  0.48168129  0.69452771     2.70100
O795        O  0.91755243  0.49054593  0.63511718    -0.80200
O796        O  0.83724811  0.43503773  0.69580978    -0.99300
Zr797      Zr  0.99006942  0.41019403  0.74236494     2.21500
Zr798      Zr  0.02277582  0.58717683  0.75940695     2.11100
O799        O  0.01969813  0.55422596  0.70361705    -2.48000
O800        O  0.00650595  0.46976202  0.70107975    -0.80000
O801        O  0.08821412  0.56546824  0.76005301    -0.72200
O802        O  0.91397210  0.42155126  0.74014582    -2.33200
O803        O  0.07955871  0.47961531  0.75145472    -2.29400
O804        O  0.93342000  0.51829146  0.74883814    -0.74000
H805        H  0.00288437  0.54372249  0.82863034     0.78000
H806        H  0.88083235  0.38833002  0.73656333     0.79100
H807        H  0.02123315  0.57606094  0.68505407     0.81300
H808        H  0.10483041  0.46760047  0.75075232     0.79000
H809        H  0.80742424  0.38679004  0.78074877     0.42000
H810        H  0.82646490  0.44981884  0.67685415     0.41000
H811        H  0.95126584  0.49942833  0.62376714     0.40600
H812        H  0.11700933  0.56706443  0.63676552     0.38600
H813        H  0.20117557  0.61005829  0.72315011     0.41700
H814        H  0.17898809  0.52461010  0.81560960     0.36500
H815        H  0.06494952  0.50548354  0.87808987     0.42600
H816        H  0.88196644  0.44074177  0.86240486     0.39000
H817        H  0.17154371  0.59694737  0.65665972     0.43900
H818        H  0.18787115  0.58207248  0.81415149     0.42700
H819        H  0.83629809  0.44215697  0.84153340     0.42800
H820        H  0.82613744  0.39845476  0.68837233     0.43200
O821        O  0.36979155  0.91460602  0.81326512    -0.75700
O822        O  0.33269348  0.94178614  0.77361730    -0.54600
C823        C  0.33300419  0.92407981  0.80288942     0.78000
O824        O  0.60726811  0.07534438  0.83452384    -0.60300
O825        O  0.64365958  0.04363396  0.79714092    -0.53300
C826        C  0.64291396  0.06296859  0.82619235     0.70000
O827        O  0.44595748  0.06575045  0.83455187    -0.74900
O828        O  0.38182215  0.04209597  0.79405969    -0.55400
C829        C  0.39938228  0.05642970  0.82450995     0.76000
O830        O  0.51748778  0.89972746  0.81055134    -0.60000
O831        O  0.59048726  0.94149172  0.77747261    -0.53100
C832        C  0.56577336  0.91328937  0.80277976     0.72600
Zr833      Zr  0.44733816  0.91571180  0.78747563     2.54700
O834        O  0.42372473  0.86808596  0.84057755    -0.80600
O835        O  0.39592456  0.82563471  0.76529982    -0.94000
Zr836      Zr  0.52600406  0.07113142  0.80909474     2.64700
O837        O  0.53150170  0.08367158  0.87046308    -0.99000
O838        O  0.56926089  0.16716878  0.80937653    -0.81000
O839        O  0.45044393  0.99507065  0.79311158    -0.84400
O840        O  0.52953172  0.99312280  0.79963277    -2.19100
O841        O  0.54154293  0.93520913  0.66765170    -0.67800
O842        O  0.61055789  0.97309784  0.70541374    -0.52300
C843        C  0.58989672  0.94914269  0.67728202     0.71000
O844        O  0.46957378  0.10434061  0.68181065    -0.60700
O845        O  0.40374317  0.07674938  0.71992670    -0.52600
C846        C  0.42396140  0.09655104  0.69155529     0.71900
O847        O  0.62627404  0.11212544  0.68638993    -0.72100
O848        O  0.65900662  0.07675369  0.72352477    -0.50700
C849        C  0.66008549  0.09755569  0.69497023     0.74200
O850        O  0.38794508  0.94361996  0.66172790    -0.67400
O851        O  0.35032712  0.97364500  0.69934050    -0.54600
C852        C  0.35174143  0.95486659  0.67018137     0.72600
Zr853      Zr  0.46540354  0.94498141  0.68882119     2.77500
O854        O  0.46873718  0.94825604  0.62724459    -0.98100
O855        O  0.41265736  0.84903539  0.68377010    -0.79000
Zr856      Zr  0.54300634  0.10089267  0.71062655     2.70100
O857        O  0.57552140  0.15960988  0.66245806    -0.80200
O858        O  0.58175364  0.18839388  0.73671296    -0.99300
Zr859      Zr  0.41089809  0.00834969  0.74743552     2.21500
Zr860      Zr  0.58133675  0.00871037  0.75016998     2.11100
O861        O  0.54660650  0.02277802  0.69909483    -2.48000
O862        O  0.46609251  0.02143673  0.70370460    -0.80000
O863        O  0.50043244  0.92776423  0.73888120    -0.72200
O864        O  0.49089723  0.08944810  0.75950623    -2.33200
O865        O  0.40946573  0.92695778  0.73667368    -2.29400
O866        O  0.58164607  0.08936173  0.76106946    -0.74000
H867        H  0.54464522  0.98759168  0.81959224     0.78000
H868        H  0.48425168  0.11844183  0.76313196     0.79100
H869        H  0.56644966  0.02579534  0.67912669     0.81300
H870        H  0.37398618  0.89814625  0.73235487     0.79000
H871        H  0.56364780  0.17689792  0.83237768     0.42000
H872        H  0.62067885  0.20362199  0.73427159     0.41000
H873        H  0.56084987  0.13603799  0.64234084     0.40600
H874        H  0.50469462  0.97776877  0.62211188     0.38600
H875        H  0.37577696  0.84150889  0.67933851     0.41700
H876        H  0.36993795  0.80592435  0.78312443     0.36500
H877        H  0.43588557  0.89601119  0.85831356     0.42600
H878        H  0.53224908  0.05262152  0.87972779     0.39000
H879        H  0.46937536  0.91600355  0.62003332     0.43900
H880        H  0.42115324  0.81202413  0.76597568     0.42700
H881        H  0.56749320  0.11396942  0.87542880     0.42800
H882        H  0.57234712  0.20897862  0.72113328     0.43200
C883        C  0.05697857  0.11823967  0.86431847     0.79800
N884        N  0.11124293  0.14346262  0.85939590    -0.78500
C885        C  0.13764167  0.19404347  0.84760934     0.82200
N886        N  0.11075154  0.21927679  0.84110774    -0.78500
C887        C  0.05843388  0.19685260  0.84603248     0.82300
N888        N  0.03105819  0.14638326  0.85811200    -0.80200
C889        C  0.10379297  0.21777390  0.56101887     0.79800
N890        N  0.07651241  0.24345705  0.56811114    -0.78500
C891        C  0.10375322  0.29582693  0.57635617     0.82200
N892        N  0.15736948  0.32117247  0.57781675    -0.78500
C893        C  0.18443948  0.29504312  0.57412039     0.82300
N894        N  0.15749624  0.24288365  0.56568933    -0.80200
C895        C  0.08521304  0.85874371  0.56359435     0.79800
N896        N  0.13933991  0.89169774  0.56655883    -0.78500
C897        C  0.17011796  0.87770444  0.58478436     0.82200
N898        N  0.14658110  0.83171087  0.60101920    -0.78500
C899        C  0.09336026  0.79951046  0.59998100     0.82300
N900        N  0.06160663  0.81290913  0.58155231    -0.80200
C901        C  0.88761376  0.09592355  0.58722935     0.79800
N902        N  0.83519044  0.07328673  0.59544752    -0.78500
C903        C  0.81443963  0.10423182  0.60461180     0.82200
N904        N  0.84564002  0.15705284  0.60533790    -0.78500
C905        C  0.89774382  0.18065970  0.59833790     0.82300
N906        N  0.91965712  0.14996496  0.58986204    -0.80200
C907        C  0.89771924  0.12336063  0.93684851     0.79800
N908        N  0.92535682  0.17109224  0.92140851    -0.78500
C909        C  0.89756113  0.19143885  0.90551169     0.82200
N910        N  0.84404122  0.16448991  0.90464808    -0.78500
C911        C  0.81624587  0.11605809  0.91740486     0.82300
N912        N  0.84314618  0.09479597  0.93304308    -0.80200
C913        C  0.21647968  0.12258139  0.94031029     0.79800
N914        N  0.23988653  0.17141619  0.92579268    -0.78500
C915        C  0.28748789  0.18909428  0.90985805     0.82200
N916        N  0.30960815  0.15817782  0.90791039    -0.78500
C917        C  0.28462065  0.10837712  0.91855753     0.82300
N918        N  0.23739846  0.09004624  0.93446512    -0.80200
C919        C  0.09627826  0.88950465  0.91325414     0.79800
N920        N  0.07250966  0.83543226  0.90976020    -0.78500
C921        C  0.10265408  0.81304081  0.90059804     0.82200
N922        N  0.15488753  0.84464298  0.89529143    -0.78500
C923        C  0.17801078  0.89753168  0.89703666     0.82300
N924        N  0.14867264  0.92014980  0.90568519    -0.80200
C925        C  0.19740588  0.10217645  0.58509385     0.79800
N926        N  0.21862901  0.15598288  0.58571383    -0.78500
C927        C  0.27235695  0.18813272  0.59045435     0.82200
N928        N  0.30302340  0.16615950  0.59564384    -0.78500
C929        C  0.28208063  0.11374412  0.59859685     0.82300
N930        N  0.22906143  0.08133623  0.59299890    -0.80200
O931        O  0.05587692  0.12531726  0.56983175    -0.86900
O932        O  0.00959524  0.02835454  0.89137241    -0.87100
O933        O  0.13459140  0.12055577  0.95895170    -0.88700
O934        O  0.97621851  0.11848967  0.95614056    -0.87500
O935        O  0.89142227  0.05589330  0.97008064    -0.87100
O936        O  0.15495679  0.05723280  0.97456077    -0.88500
O937        O  0.05129729  0.10834447  0.92015765    -0.86900
O938        O  0.07451335  0.15860695  0.51582347    -0.86500
Zr939      Zr  0.03970984  0.08828708  0.97699356     2.84300
O940        O  0.95824892  0.01974243  0.95559254    -1.08500
O941        O  0.06697885  0.05646868  0.52071609    -1.09200
C942        C  0.07593182  0.16347155  0.54827197     1.06200
C943        C  0.03696705  0.08079609  0.89308166     1.06100
C944        C  0.16587272  0.10019052  0.95956220     1.09100
C945        C  0.92451216  0.09871553  0.95563756     1.06900
H946        H  0.07466041  0.02860689  0.93772873     0.32500
O947        O  0.05020475  0.01855015  0.95615077    -1.29500
H948        H  0.97412251  0.08687028  0.52469151     0.32100
O949        O  0.97785794  0.05676729  0.51913438    -1.31100
O950        O  0.92085173  0.85466350  0.92987941    -0.86900
O951        O  0.96768275  0.95119169  0.60995174    -0.88400
O952        O  0.09255264  0.93927833  0.95807811    -0.87000
O953        O  0.83499763  0.94051435  0.95415011    -0.87000
O954        O  0.88246920  0.03684021  0.54447038    -0.86700
O955        O  0.14290401  0.04120446  0.54399895    -0.86500
O956        O  0.00353016  0.85900522  0.54507436    -0.86900
O957        O  0.84635404  0.86006171  0.54646779    -0.86400
O958        O  0.08654668  0.92049240  0.52749893    -0.87400
O959        O  0.82377876  0.92148897  0.53005236    -0.86600
O960        O  0.02922380  0.91641192  0.91602101    -0.87000
O961        O  0.10211237  0.06562538  0.58416012    -0.86700
O962        O  0.94858277  0.06247325  0.58504921    -0.86400
O963        O  0.87750005  0.91887713  0.91349956    -0.86800
O964        O  0.90548660  0.81925563  0.98343143    -0.87100
O965        O  0.92713696  0.87074964  0.58160954    -0.88400
Zr966      Zr  0.96969225  0.95097090  0.93433560     2.83100
Zr967      Zr  0.00722893  0.02792187  0.56641032     2.83500
Zr968      Zr  0.07862222  0.98830652  0.50022332     2.84100
Zr969      Zr  0.89697010  0.98715382  0.49930410     2.83400
Zr970      Zr  0.93945970  0.88916257  0.52471408     2.84200
O971        O  0.92710818  0.95820381  0.54464086    -1.09000
O972        O  0.99927092  0.92070927  0.98070991    -1.08500
C973        C  0.90313223  0.81591014  0.95081983     1.06200
C974        C  0.94066551  0.89870115  0.60849040     1.08800
C975        C  0.06997992  0.91597815  0.92996354     1.06300
C976        C  0.83571279  0.91753454  0.92627261     1.06700
C977        C  0.90723926  0.06233561  0.57181335     1.06300
C978        C  0.14358803  0.06694271  0.57077992     1.05800
C979        C  0.05517091  0.87885385  0.54366678     1.06300
C980        C  0.81483916  0.88031030  0.54650017     1.05800
H981        H  0.03474593  0.95018828  0.56468943     0.32500
O982        O  0.02033421  0.95980651  0.54587095    -1.30100
H983        H  0.87609036  0.89007703  0.97419945     0.32500
O984        O  0.91004193  0.92024182  0.98056241    -1.31500
C985        C  0.76608952  0.86003677  0.56788347     0.79800
N986        N  0.74764659  0.89440927  0.57496311    -0.78500
C987        C  0.70260726  0.87854385  0.59307849     0.82200
N988        N  0.67703830  0.82915798  0.60451103    -0.78500
C989        C  0.69554547  0.79549854  0.59988517     0.82300
N990        N  0.74111859  0.81076601  0.58192454    -0.80200
C991        C  0.78348512  0.88553824  0.90932295     0.79800
N992        N  0.75707457  0.83126109  0.91060487    -0.78500
C993        C  0.70466894  0.80300745  0.90056087     0.82200
N994        N  0.68072093  0.82882846  0.88849178    -0.78500
C995        C  0.70677601  0.88153968  0.88584067     0.82300
N996        N  0.75828370  0.91048790  0.89632623    -0.80200
C997        C  0.92152765  0.86117905  0.63720895     0.79800
N998        N  0.86693356  0.83281140  0.64111105    -0.78500
C999        C  0.84231505  0.78076023  0.65021812     0.82200
N1000       N  0.87141747  0.75743889  0.65545394    -0.78500
C1001       C  0.92432213  0.78345596  0.65233793     0.82300
N1002       N  0.94992775  0.83551944  0.64330571    -0.80200
C1003       C  0.88184459  0.76338961  0.93636547     0.79800
N1004       N  0.83198860  0.73733131  0.92225126    -0.78500
C1005       C  0.81439893  0.68888273  0.90790632     0.82200
N1006       N  0.84676452  0.66829097  0.90678666    -0.78500
C1007       C  0.89709277  0.69524197  0.91885325     0.82300
N1008       N  0.91509639  0.74334527  0.93343519    -0.80200
C1009       C  0.70158837  0.92646420  0.64355170    -0.20700
C1010       C  0.68729770  0.91494699  0.60928342    -0.07300
C1011       C  0.64384561  0.91930535  0.59681681     0.13600
C1012       C  0.61403642  0.93222368  0.61914489    -0.20800
C1013       C  0.62528633  0.93908760  0.65422324    -0.07300
C1014       C  0.67097837  0.93720814  0.66629633     0.13600
C1015       C  0.68595969  0.94188726  0.70339732    -0.24100
H1016       H  0.73392700  0.92141091  0.65329709     0.14900
H1017       H  0.58053843  0.93506729  0.60922919     0.14900
C1018       C  0.62764181  0.90790749  0.56010590    -0.24100
H1019       H  0.72002077  0.93515434  0.70805330     0.05100
H1020       H  0.65172386  0.91189401  0.71787977     0.08300
H1021       H  0.69823482  0.98201677  0.71329215     0.08300
H1022       H  0.61620834  0.86645455  0.55364919     0.08300
H1023       H  0.66154015  0.93503897  0.54419375     0.08300
H1024       H  0.59322603  0.91349746  0.55408223     0.05100
C1025       C  0.72718668  0.09652502  0.61200972    -0.20700
C1026       C  0.76552169  0.08441880  0.62390174    -0.07300
C1027       C  0.76812561  0.07553782  0.65860708     0.13600
C1028       C  0.73524616  0.08298295  0.68094297    -0.20800
C1029       C  0.69801227  0.09747899  0.66962807    -0.07300
C1030       C  0.69296830  0.10266642  0.63421002     0.13600
C1031       C  0.65279713  0.11555982  0.61919664    -0.24100
H1032       H  0.72658408  0.10478229  0.58537701     0.14900
H1033       H  0.73931888  0.07782674  0.70768035     0.14900
C1034       C  0.80829032  0.06164914  0.67249684    -0.24100
H1035       H  0.65533242  0.11836774  0.59122290     0.05100
H1036       H  0.66020321  0.15431354  0.62921324     0.08300
H1037       H  0.61182908  0.08400641  0.62516988     0.08300
H1038       H  0.84927831  0.09382745  0.66748138     0.08300
H1039       H  0.80210318  0.02461776  0.66027367     0.08300
H1040       H  0.80468120  0.05555473  0.70023102     0.05100
C1041       C  0.68378792  0.08940411  0.88457343    -0.20700
C1042       C  0.68412146  0.06887890  0.85222887    -0.07300
C1043       C  0.72293441  0.05316745  0.84620086     0.13600
C1044       C  0.75902419  0.05858879  0.87215674    -0.20800
C1045       C  0.76201249  0.08433987  0.90277244    -0.07300
C1046       C  0.72308192  0.09879524  0.90929689     0.13600
C1047       C  0.72477573  0.12665433  0.94188819    -0.24100
H1048       H  0.65433964  0.10085529  0.89011955     0.14900
H1049       H  0.79001116  0.04907968  0.86681571     0.14900
C1050       C  0.73030596  0.03436272  0.81206377    -0.24100
H1051       H  0.69148934  0.13519990  0.94326054     0.05100
H1052       H  0.76271842  0.16479024  0.94417974     0.08300
H1053       H  0.72170831  0.10140151  0.96356309     0.08300
H1054       H  0.73999266  0.06550351  0.79302771     0.08300
H1055       H  0.69387737  0.99772515  0.80415235     0.08300
H1056       H  0.76336949  0.02538424  0.81226837     0.05100
C1057       C  0.63770657  0.89319576  0.81056715    -0.20700
C1058       C  0.59863642  0.90133453  0.82556373    -0.07300
C1059       C  0.60085686  0.91057307  0.86094950     0.13600
C1060       C  0.64168924  0.91057723  0.88026607    -0.20800
C1061       C  0.68045395  0.90258864  0.86501986    -0.07300
C1062       C  0.67903337  0.89465290  0.82975078     0.13600
C1063       C  0.72015895  0.88583227  0.81242285    -0.24100
H1064       H  0.63679580  0.88731369  0.78341271     0.14900
H1065       H  0.64200402  0.91429666  0.90757652     0.14900
C1066       C  0.56098489  0.92080956  0.87864269    -0.24100
H1067       H  0.71433993  0.88257453  0.78451692     0.05100
H1068       H  0.71733938  0.84865483  0.82127626     0.08300
H1069       H  0.76060304  0.91943046  0.81823369     0.08300
H1070       H  0.52038096  0.88635526  0.87499365     0.08300
H1071       H  0.56256507  0.95688773  0.86863440     0.08300
H1072       H  0.56923428  0.92708849  0.90628154     0.05100
C1073       C  0.38769985  0.08780315  0.63377151    -0.20700
C1074       C  0.38951629  0.10434670  0.66751729    -0.07300
C1075       C  0.35225349  0.11908981  0.67842253     0.13600
C1076       C  0.31366618  0.11557600  0.65548692    -0.20800
C1077       C  0.31193200  0.09915713  0.62184354    -0.07300
C1078       C  0.34935759  0.08535123  0.61070839     0.13600
C1079       C  0.34868772  0.06813106  0.57469840    -0.24100
H1080       H  0.41535858  0.07522772  0.62565239     0.14900
H1081       H  0.28593126  0.12825117  0.66338941     0.14900
C1082       C  0.35258534  0.13861672  0.71395619    -0.24100
H1083       H  0.38069437  0.05842519  0.57021531     0.05100
H1084       H  0.35455278  0.10019802  0.55730100     0.08300
H1085       H  0.30976692  0.03234937  0.56882195     0.08300
H1086       H  0.39261860  0.17230956  0.72054149     0.08300
H1087       H  0.34146552  0.10635631  0.73221896     0.08300
H1088       H  0.32313425  0.15215955  0.71681473     0.05100
C1089       C  0.30986142  0.92428329  0.61243196    -0.20700
C1090       C  0.30918152  0.94575332  0.64442854    -0.07300
C1091       C  0.26740200  0.95710406  0.65076770     0.13600
C1092       C  0.22717371  0.94397959  0.62620171    -0.20800
C1093       C  0.22445479  0.91599964  0.59671077    -0.07300
C1094       C  0.26750651  0.90830933  0.58895439     0.13600
C1095       C  0.26734032  0.88105935  0.55643976    -0.24100
H1096       H  0.34202331  0.91693554  0.60636235     0.14900
H1097       H  0.19345013  0.94900458  0.63217412     0.14900
C1098       C  0.26112561  0.97855416  0.68414911    -0.24100
H1099       H  0.30397822  0.87812666  0.55400960     0.05100
H1100       H  0.26511832  0.90376822  0.53469746     0.08300
H1101       H  0.23247989  0.84044365  0.55531909     0.08300
H1102       H  0.29692883  0.01669602  0.69039272     0.08300
H1103       H  0.25424627  0.94975304  0.70429624     0.08300
H1104       H  0.22674215  0.98553327  0.68391260     0.05100
C1105       C  0.21319758  0.92394945  0.84181204    -0.20700
C1106       C  0.22499524  0.92489980  0.87628929    -0.07300
C1107       C  0.27303413  0.92787805  0.88655305     0.13600
C1108       C  0.30732398  0.92753209  0.86196825    -0.20800
C1109       C  0.29326051  0.92134475  0.82734961    -0.07300
C1110       C  0.24484915  0.91894786  0.81722984     0.13600
C1111       C  0.22352125  0.90688615  0.78128329    -0.24100
H1112       H  0.17512813  0.91986479  0.83433110     0.14900
H1113       H  0.34490437  0.93114081  0.87000844     0.14900
C1114       C  0.28689480  0.92937002  0.92349243    -0.24100
H1115       H  0.18295353  0.90188565  0.77912098     0.05100
H1116       H  0.22097804  0.86951304  0.77238569     0.08300
H1117       H  0.24912313  0.93937954  0.76426579     0.08300
H1118       H  0.25651200  0.89292138  0.93592029     0.08300
H1119       H  0.28816661  0.96421774  0.93591870     0.08300
H1120       H  0.32634174  0.93224741  0.92725655     0.05100
C1121       C  0.37899002  0.06818976  0.88468364    -0.20700
C1122       C  0.36335426  0.06082850  0.85019257    -0.07300
C1123       C  0.31369822  0.05740268  0.84166617     0.13600
C1124       C  0.28226006  0.06107416  0.86732462    -0.20800
C1125       C  0.30093908  0.07406701  0.90083992    -0.07300
C1126       C  0.34940928  0.07654985  0.90965678     0.13600
C1127       C  0.37121669  0.09098949  0.94525612    -0.24100
H1128       H  0.41607939  0.07020900  0.89210782     0.14900
H1129       H  0.24602687  0.06130725  0.86034046     0.14900
C1130       C  0.29521013  0.05529112  0.80561365    -0.24100
H1131       H  0.40918011  0.09058695  0.94839092     0.05100
H1132       H  0.34191271  0.06225521  0.96306817     0.08300
H1133       H  0.37890834  0.13125274  0.95191844     0.08300
H1134       H  0.28912631  0.01912197  0.79259617     0.08300
H1135       H  0.32532379  0.09055960  0.79210315     0.08300
H1136       H  0.25679884  0.05514481  0.80398344     0.05100
C1137       C  0.08628812  0.77355665  0.65831041    -0.20700
C1138       C  0.07401040  0.75665984  0.62441682    -0.07300
C1139       C  0.06893735  0.70791062  0.61471952     0.13600
C1140       C  0.07976091  0.67882519  0.63852712    -0.20800
C1141       C  0.09636261  0.69778044  0.67193427    -0.07300
C1142       C  0.09878889  0.74569111  0.68197581     0.13600
C1143       C  0.11822505  0.77001835  0.71674217    -0.24100
H1144       H  0.09177544  0.81198042  0.66536670     0.14900
H1145       H  0.07492660  0.64089799  0.63093608     0.14900
C1146       C  0.05380118  0.68770143  0.57887733    -0.24100
H1147       H  0.12299190  0.81014193  0.71872689     0.05100
H1148       H  0.15759381  0.77364859  0.72232347     0.08300
H1149       H  0.08955686  0.74591638  0.73630939     0.08300
H1150       H  0.08373537  0.71600418  0.56117526     0.08300
H1151       H  0.01422402  0.68299897  0.57245926     0.08300
H1152       H  0.05144507  0.64880596  0.57528404     0.05100
C1153       C  0.96099622  0.75001107  0.69442516    -0.20700
C1154       C  0.94997607  0.75179621  0.66025883    -0.07300
C1155       C  0.94040684  0.70832793  0.63911641     0.13600
C1156       C  0.94226037  0.66445731  0.65265110    -0.20800
C1157       C  0.95067653  0.66125827  0.68741522    -0.07300
C1158       C  0.95969581  0.70535761  0.70860544     0.13600
C1159       C  0.96392745  0.70525249  0.74679335    -0.24100
H1160       H  0.96516489  0.78182432  0.71088371     0.14900
H1161       H  0.93614590  0.63215913  0.63604162     0.14900
C1162       C  0.92593834  0.70740089  0.60233113    -0.24100
H1163       H  0.96332406  0.73951304  0.75878315     0.05100
H1164       H  0.00188805  0.70792808  0.75500926     0.08300
H1165       H  0.92960969  0.66896240  0.75680286     0.08300
H1166       H  0.95791212  0.74242913  0.58965268     0.08300
H1167       H  0.88805764  0.70807670  0.59979616     0.08300
H1168       H  0.92065363  0.67138730  0.58906215     0.05100
C1169       C  0.95153412  0.66829273  0.84480464    -0.20700
C1170       C  0.93997963  0.61660753  0.85200437    -0.07300
C1171       C  0.92979615  0.59926227  0.88596560     0.13600
C1172       C  0.92720794  0.63232515  0.91085023    -0.20800
C1173       C  0.93315156  0.68134861  0.90251823    -0.07300
C1174       C  0.94888850  0.70106965  0.86968946     0.13600
C1175       C  0.95778696  0.75492188  0.86001436    -0.24100
H1176       H  0.96143768  0.68286302  0.81930976     0.14900
H1177       H  0.91411050  0.61729676  0.93601752     0.14900
C1178       C  0.91931381  0.54546335  0.89629241    -0.24100
H1179       H  0.96431523  0.76192218  0.83251643     0.05100
H1180       H  0.99261376  0.78591417  0.87390104     0.08300
H1181       H  0.92355618  0.75990711  0.86658781     0.08300
H1182       H  0.95263093  0.53941488  0.88847038     0.08300
H1183       H  0.88127088  0.51503251  0.88453629     0.08300
H1184       H  0.91530185  0.54031760  0.92410119     0.05100
C1185       C  0.08389382  0.71965737  0.90215353    -0.20700
C1186       C  0.08096685  0.75994711  0.88444972    -0.07300
C1187       C  0.07980234  0.75736863  0.84868729     0.13600
C1188       C  0.08319214  0.71674495  0.83195713    -0.20800
C1189       C  0.08884960  0.67754215  0.84921424    -0.07300
C1190       C  0.08720467  0.67827540  0.88508084     0.13600
C1191       C  0.09107843  0.63713337  0.90557450    -0.24100
H1192       H  0.08729519  0.72258216  0.92948577     0.14900
H1193       H  0.08258174  0.71702351  0.80456678     0.14900
C1194       C  0.07972729  0.79965360  0.82688907    -0.24100
H1195       H  0.09054614  0.64432756  0.93313833     0.05100
H1196       H  0.12886715  0.63771347  0.89998056     0.08300
H1197       H  0.05672877  0.59748809  0.89939820     0.08300
H1198       H  0.11732326  0.81961523  0.81257897     0.08300
H1199       H  0.07596889  0.83009480  0.84154201     0.08300
H1200       H  0.04601191  0.78131898  0.80842913     0.05100
C1201       C  0.91528595  0.27281551  0.59429810    -0.20700
C1202       C  0.92849611  0.23695553  0.60932790    -0.07300
C1203       C  0.94982644  0.24802735  0.64243505     0.13600
C1204       C  0.95109001  0.28992009  0.66091757    -0.20800
C1205       C  0.93336835  0.32331607  0.64717773    -0.07300
C1206       C  0.91837499  0.31632022  0.61258067     0.13600
C1207       C  0.90221122  0.35212458  0.59548079    -0.24100
H1208       H  0.89787106  0.26396746  0.56904777     0.14900
H1209       H  0.96422011  0.29498289  0.68707708     0.14900
C1210       C  0.96641266  0.21233179  0.65959529    -0.24100
H1211       H  0.89026276  0.34024881  0.56865495     0.05100
H1212       H  0.93624668  0.39323717  0.59593556     0.08300
H1213       H  0.86792751  0.35077984  0.60870683     0.08300
H1214       H  0.99698473  0.20967113  0.64437279     0.08300
H1215       H  0.93162494  0.17216635  0.66211748     0.08300
H1216       H  0.98341422  0.22709109  0.68529802     0.05100
C1217       C  0.06759735  0.39086025  0.61608888    -0.20700
C1218       C  0.07458000  0.38297998  0.65042984    -0.07300
C1219       C  0.08391383  0.34136445  0.65937297     0.13600
C1220       C  0.08673493  0.30957149  0.63387949    -0.20800
C1221       C  0.08094590  0.31805668  0.59967277    -0.07300
C1222       C  0.07097660  0.35885592  0.59053670     0.13600
C1223       C  0.06433992  0.36856166  0.55398820    -0.24100
H1224       H  0.05899689  0.42178144  0.60928536     0.14900
H1225       H  0.09675295  0.27951707  0.64056128     0.14900
C1226       C  0.09314114  0.33125527  0.69552820    -0.24100
H1227       H  0.05603376  0.40163092  0.55115053     0.05100
H1228       H  0.03045481  0.33241173  0.54252382     0.08300
H1229       H  0.10120393  0.37853076  0.54006558     0.08300
H1230       H  0.05636293  0.31760676  0.71029431     0.08300
H1231       H  0.12596451  0.36791832  0.70721808     0.08300
H1232       H  0.10431966  0.30001189  0.69722230     0.05100
C1233       C  0.02621200  0.28487126  0.79616348    -0.20700
C1234       C  0.04581783  0.33013491  0.81769103    -0.07300
C1235       C  0.05878422  0.32480455  0.85154085     0.13600
C1236       C  0.05355646  0.27610015  0.86210230    -0.20800
C1237       C  0.03656873  0.23237285  0.83979789    -0.07300
C1238       C  0.02224081  0.23720684  0.80648027     0.13600
C1239       C  0.00602512  0.19376289  0.78029142    -0.24100
H1240       H  0.01462469  0.28633243  0.77024954     0.14900
H1241       H  0.06735233  0.27357086  0.88723346     0.14900
C1242       C  0.08061363  0.37053727  0.87624517    -0.24100
H1243       H  0.96658646  0.18335980  0.76916050     0.05100
H1244       H  0.00282583  0.15726784  0.79094244     0.08300
H1245       H  0.03572948  0.20766875  0.75980192     0.08300
H1246       H  0.11792608  0.40387598  0.86641521     0.08300
H1247       H  0.08994285  0.35974978  0.90123957     0.08300
H1248       H  0.05093805  0.38342895  0.88024033     0.05100
C1249       C  0.90917220  0.25654990  0.82393088    -0.20700
C1250       C  0.91795428  0.30600702  0.83513483    -0.07300
C1251       C  0.93070360  0.32038897  0.86989227     0.13600
C1252       C  0.93173701  0.28401506  0.89239537    -0.20800
C1253       C  0.92070217  0.23406716  0.88125447    -0.07300
C1254       C  0.91007358  0.22040712  0.84652035     0.13600
C1255       C  0.89591955  0.16605300  0.83356100    -0.24100
H1256       H  0.90046557  0.24557647  0.79741579     0.14900
H1257       H  0.93740855  0.29315369  0.91926008     0.14900
C1258       C  0.94335655  0.37368334  0.88392924    -0.24100
H1259       H  0.89107645  0.16283997  0.80562391     0.05100
H1260       H  0.85777432  0.13577034  0.84426016     0.08300
H1261       H  0.92753191  0.15694717  0.84087813     0.08300
H1262       H  0.90770553  0.37832542  0.88178037     0.08300
H1263       H  0.97712321  0.40560383  0.87015350     0.08300
H1264       H  0.95500301  0.37835968  0.91111699     0.05100
C1265       C  0.64552969  0.68807506  0.84345222    -0.20700
C1266       C  0.59197936  0.66195710  0.85411105    -0.07300
C1267       C  0.58135909  0.67464796  0.88657463     0.13600
C1268       C  0.62308185  0.71643116  0.90550959    -0.20800
C1269       C  0.67527154  0.74570607  0.89293311    -0.07300
C1270       C  0.68690800  0.72895571  0.86240466     0.13600
C1271       C  0.74198988  0.75844006  0.84777872    -0.24100
H1272       H  0.65513502  0.67889108  0.81891874     0.14900
H1273       H  0.61366491  0.73013810  0.92857368     0.14900
C1274       C  0.52579635  0.64744904  0.90018108    -0.24100
H1275       H  0.74478585  0.73999301  0.82380345     0.05100
H1276       H  0.77135647  0.75907240  0.86625982     0.08300
H1277       H  0.75304741  0.79979082  0.84236001     0.08300
H1278       H  0.51160830  0.60468720  0.90308946     0.08300
H1279       H  0.49866334  0.65265479  0.88259266     0.08300
H1280       H  0.52417652  0.66377630  0.92531203     0.05100
C1281       C  0.73272600  0.63078592  0.82937998    -0.20700
C1282       C  0.68389055  0.59464620  0.84288641    -0.07300
C1283       C  0.67564619  0.59443902  0.87816579     0.13600
C1284       C  0.71830448  0.62907209  0.89921790    -0.20800
C1285       C  0.76779742  0.66385770  0.88558481    -0.07300
C1286       C  0.77485586  0.66517334  0.85020022     0.13600
C1287       C  0.82702013  0.70171965  0.83397557    -0.24100
H1288       H  0.73803621  0.63165663  0.80222483     0.14900
H1289       H  0.71340253  0.62778807  0.92639434     0.14900
C1290       C  0.62278987  0.55974002  0.89451461    -0.24100
H1291       H  0.82318962  0.70180298  0.80600273     0.05100
H1292       H  0.84220172  0.74280454  0.84326619     0.08300
H1293       H  0.85543464  0.68786914  0.83970931     0.08300
H1294       H  0.62709446  0.53369381  0.91306425     0.08300
H1295       H  0.59061532  0.53443000  0.87641728     0.08300
H1296       H  0.60993325  0.58491615  0.90800351     0.05100
C1297       C  0.75511950  0.70364985  0.63439366    -0.20700
C1298       C  0.78505223  0.74652933  0.65691779    -0.07300
C1299       C  0.76952424  0.74125101  0.69081137     0.13600
C1300       C  0.72746223  0.69320553  0.70184562    -0.20800
C1301       C  0.69798699  0.64890868  0.67997474    -0.07300
C1302       C  0.71152448  0.65529982  0.64530455     0.13600
C1303       C  0.68146347  0.61147765  0.61983621    -0.24100
H1304       H  0.76830170  0.70679465  0.60853902     0.14900
H1305       H  0.71843510  0.69061503  0.72848008     0.14900
C1306       C  0.79984529  0.78561275  0.71612641    -0.24100
H1307       H  0.69743716  0.62331803  0.59400428     0.05100
H1308       H  0.63892501  0.60083721  0.61905243     0.08300
H1309       H  0.68476995  0.57642466  0.62676239     0.08300
H1310       H  0.79906347  0.82145485  0.70776834     0.08300
H1311       H  0.84182991  0.79463474  0.71833323     0.08300
H1312       H  0.78226058  0.77545475  0.74167936     0.05100
C1313       C  0.58911707  0.67251976  0.63767945    -0.20700
C1314       C  0.59570399  0.68894327  0.67191525    -0.07300
C1315       C  0.64231843  0.73635132  0.68175581     0.13600
C1316       C  0.68008961  0.76555232  0.65732414    -0.20800
C1317       C  0.67192968  0.75073685  0.62294863    -0.07300
C1318       C  0.62616324  0.70328761  0.61311232     0.13600
C1319       C  0.61563693  0.68619241  0.57652616    -0.24100
H1320       H  0.55477509  0.63529963  0.62997102     0.14900
H1321       H  0.71421225  0.80333702  0.66456164     0.14900
C1322       C  0.65154643  0.75850974  0.71738097    -0.24100
H1323       H  0.57829322  0.64770748  0.57307969     0.05100
H1324       H  0.64912586  0.68187237  0.56679346     0.08300
H1325       H  0.61187567  0.71611607  0.56142609     0.08300
H1326       H  0.65878339  0.73335201  0.73502491     0.08300
H1327       H  0.61651190  0.76141021  0.72557400     0.08300
H1328       H  0.68701970  0.79873300  0.71926725     0.05100
C1329       C  0.31424290  0.39133999  0.61516671    -0.20700
C1330       C  0.30195843  0.37577230  0.64897743    -0.07300
C1331       C  0.25341012  0.32957213  0.65632874     0.13600
C1332       C  0.22015422  0.29898834  0.62965420    -0.20800
C1333       C  0.23140111  0.31556331  0.59611085    -0.07300
C1334       C  0.27852531  0.36251884  0.58871525     0.13600
C1335       C  0.28986321  0.38297120  0.55319904    -0.24100
H1336       H  0.35143815  0.42660583  0.60947145     0.14900
H1337       H  0.18218697  0.26446697  0.63527044     0.14900
C1338       C  0.23390273  0.31427828  0.69200421    -0.24100
H1339       H  0.32906217  0.41975761  0.55162263     0.05100
H1340       H  0.25861756  0.39176490  0.54434318     0.08300
H1341       H  0.29010382  0.35283427  0.53607057     0.08300
H1342       H  0.23424661  0.34813932  0.70524683     0.08300
H1343       H  0.25893123  0.30200691  0.70620029     0.08300
H1344       H  0.19246514  0.28048813  0.69241134     0.05100
C1345       C  0.29073412  0.23990929  0.64073797    -0.20700
C1346       C  0.29603850  0.24140739  0.60566481    -0.07300
C1347       C  0.34203512  0.28377360  0.59157494     0.13600
C1348       C  0.38282802  0.32158057  0.61297711    -0.20800
C1349       C  0.38116152  0.31490499  0.64822584    -0.07300
C1350       C  0.33382054  0.27243070  0.66214715     0.13600
C1351       C  0.32850924  0.25696679  0.69898784    -0.24100
H1352       H  0.25591967  0.20665198  0.65144765     0.14900
H1353       H  0.41779283  0.35406092  0.60195389     0.14900
C1354       C  0.34956671  0.28650020  0.55394695    -0.24100
H1355       H  0.28949964  0.22155524  0.70430998     0.05100
H1356       H  0.33180777  0.28903657  0.71572965     0.08300
H1357       H  0.35971671  0.24705052  0.70594501     0.08300
H1358       H  0.31535908  0.28666430  0.54118643     0.08300
H1359       H  0.35186114  0.25162350  0.54483720     0.08300
H1360       H  0.38672087  0.32267380  0.54670929     0.05100
C1361       C  0.30292127  0.21025493  0.85081322    -0.20700
C1362       C  0.30784426  0.23000346  0.88407370    -0.07300
C1363       C  0.34876254  0.28151257  0.89191471     0.13600
C1364       C  0.38382866  0.31195554  0.86644945    -0.20800
C1365       C  0.38020283  0.29140988  0.83347644    -0.07300
C1366       C  0.33959832  0.23926265  0.82582489     0.13600
C1367       C  0.33613603  0.21267550  0.79226806    -0.24100
H1368       H  0.27292281  0.16952547  0.84531586     0.14900
H1369       H  0.41423888  0.35226156  0.87241943     0.14900
C1370       C  0.35607535  0.30370414  0.92728630    -0.24100
H1371       H  0.30476579  0.17032539  0.79208570     0.05100
H1372       H  0.37472097  0.21474659  0.78697734     0.08300
H1373       H  0.32604420  0.23179645  0.77167823     0.08300
H1374       H  0.36420098  0.27925169  0.94509811     0.08300
H1375       H  0.31929878  0.30369515  0.93498649     0.08300
H1376       H  0.38984562  0.34492380  0.92912624     0.05100
C1377       C  0.22346620  0.27103595  0.86432255    -0.20700
C1378       C  0.19554408  0.22645994  0.84274266    -0.07300
C1379       C  0.21476936  0.22839964  0.81007926     0.13600
C1380       C  0.25867328  0.27512492  0.79898213    -0.20800
C1381       C  0.28485322  0.32156031  0.81942848    -0.07300
C1382       C  0.26767505  0.31850106  0.85317723     0.13600
C1383       C  0.29340846  0.36535358  0.87704809    -0.24100
H1384       H  0.20746871  0.27026491  0.88910270     0.14900
H1385       H  0.27144675  0.27521825  0.77335938     0.14900
C1386       C  0.18629517  0.18213498  0.78587656    -0.24100
H1387       H  0.27414259  0.35604324  0.90212132     0.05100
H1388       H  0.29001680  0.39866136  0.86640661     0.08300
H1389       H  0.33602331  0.37772471  0.88116131     0.08300
H1390       H  0.14515206  0.17422406  0.78074683     0.08300
H1391       H  0.18454346  0.14655135  0.79708493     0.08300
H1392       H  0.20692585  0.18956925  0.76131935     0.05100
loop_ 
_geom_bond_atom_site_label_1 
_geom_bond_atom_site_label_2 
_geom_bond_distance 
_geom_bond_site_symmetry_2 
_ccdc_geom_bond_type 
O1          Zr13   2.422       .  S
O1            C3   1.282       .  A
O2          Zr39   2.417       .  S
O2            C3   1.282       .  A
C3          C669   1.476       .  S
O4          Zr16   2.523       .  S
O4            C6   1.298       .  A
O5          Zr40   2.384       .  S
O5            C6   1.276       .  A
C6          C570   1.502       .  S
O7          Zr16   2.542       .  S
O7            C9   1.305       .  A
O8          Zr39   2.362       .  S
O8            C9   1.273       .  A
C9          C685   1.517       .  S
O10         Zr13   2.438       .  S
O10          C12   1.283       .  A
O11         Zr40   2.395       .  S
O11          C12   1.280       .  A
C12         C586   1.460       .  S
Zr13         O14   2.439       .  S
Zr13         O15   2.441       .  S
Zr13         O19   2.284       .  S
Zr13         O20   2.359       .  S
Zr13         O43   2.385       .  S
Zr13         O45   2.368       .  S
O14          H57   0.990       .  S
O15          H56   0.990       .  S
O15          H60   0.990       .  S
Zr16         O17   2.444       .  S
Zr16         O18   2.438       .  S
Zr16         O19   2.283       .  S
Zr16         O46   2.308       .  S
Zr16         O20   2.383       .  S
Zr16         O44   2.381       .  S
O17          H58   0.990       .  S
O17          H61   0.990       .  S
O18          H51   0.990       .  S
O19         Zr39   2.253       .  S
O20         Zr40   2.384       .  S
O20          H47   0.955       .  S
O21         Zr33   2.563       .  S
O21          C23   1.308       .  A
O22         Zr40   2.366       .  S
O22          C23   1.275       .  A
C23         C605   1.523       .  S
O24         Zr36   2.448       .  S
O24          C26   1.287       .  A
O25         Zr39   2.379       .  S
O25          C26   1.274       .  A
C26         C634   1.471       .  S
O27         Zr36   2.484       .  S
O27          C29   1.294       .  A
O28         Zr40   2.402       .  S
O28          C29   1.280       .  A
C29         C618   1.484       .  S
O30         Zr33   2.515       .  S
O30          C32   1.297       .  A
O31         Zr39   2.368       .  S
O31          C32   1.263       .  A
C32         C653   1.504       .  S
Zr33         O34   2.440       .  S
Zr33         O35   2.437       .  S
Zr33         O42   2.304       .  S
Zr33         O41   2.346       .  S
Zr33         O45   2.399       .  S
Zr33         O43   2.397       .  S
O34          H54   0.990       .  S
O34          H59   0.990       .  S
O35          H55   0.990       .  S
Zr36         O37   2.440       .  S
Zr36         O38   2.439       .  S
Zr36         O42   2.293       .  S
Zr36         O46   2.289       .  S
Zr36         O41   2.359       .  S
Zr36         O44   2.378       .  S
O37          H53   0.990       .  S
O38          H52   0.990       .  S
O38          H62   0.990       .  S
Zr39         O42   2.276       .  S
Zr39         O44   2.386       .  S
Zr39         O45   2.387       .  S
Zr40         O46   2.282       .  S
Zr40         O41   2.385       .  S
Zr40         O43   2.383       .  S
O41          H49   0.964       .  S
O44          H48   0.972       .  S
O45          H50   0.976       .  S
O63         Zr75   2.526       .  S
O63          C65   1.301       .  A
O64        Zr101   2.366   1_455  S
O64          C65   1.273       .  A
C65         C538   1.515       .  S
O66         Zr78   2.463       .  S
O66          C68   1.290       .  A
O67        Zr102   2.393   1_655  S
O67          C68   1.281       .  A
C68         C474   1.476       .  S
O69         Zr78   2.435       .  S
O69          C71   1.284       .  A
O70        Zr101   2.414       .  S
O70          C71   1.282       .  A
C71         C554   1.482       .  S
O72         Zr75   2.527       .  S
O72          C74   1.294       .  A
O73        Zr102   2.383       .  S
O73          C74   1.270       .  A
C74         C493   1.516       .  S
Zr75         O76   2.437       .  S
Zr75         O77   2.438       .  S
Zr75         O81   2.290   1_455  S
Zr75        O105   2.309       .  S
Zr75         O82   2.376       .  S
Zr75        O107   2.388       .  S
O76         H119   0.990       .  S
O77         H118   0.990       .  S
O77         H122   0.991       .  S
Zr78         O79   2.441       .  S
Zr78         O80   2.438       .  S
Zr78         O81   2.287       .  S
Zr78         O82   2.365   1_655  S
Zr78        O106   2.381       .  S
Zr78        O108   2.375       .  S
O79         H120   0.990       .  S
O79         H123   0.990       .  S
O80         H113   0.990       .  S
O81        Zr101   2.254       .  S
O82        Zr102   2.386       .  S
O82         H109   0.983       .  S
O83         Zr95   2.484       .  S
O83          C85   1.294       .  A
O84        Zr102   2.395       .  S
O84          C85   1.278       .  A
C85         C445   1.486       .  S
O86         Zr98   2.532       .  S
O86          C88   1.301       .  A
O87        Zr101   2.381       .  S
O87          C88   1.274       .  A
C88         C509   1.514       .  S
O89         Zr98   2.561       .  S
O89          C91   1.310       .  A
O90        Zr102   2.342   1_655  S
O90          C91   1.269       .  A
C91         C461   1.507       .  S
O92         Zr95   2.445       .  S
O92          C94   1.286       .  A
O93        Zr101   2.374   1_455  S
O93          C94   1.275       .  A
C94         C522   1.465       .  S
Zr95         O96   2.444       .  S
Zr95         O97   2.436       .  S
Zr95        O104   2.293       .  S
Zr95        O105   2.285       .  S
Zr95        O103   2.365       .  S
Zr95        O107   2.383       .  S
O96         H116   0.991       .  S
O96         H121   0.990       .  S
O97         H117   0.990       .  S
Zr98         O99   2.438       .  S
Zr98        O100   2.437       .  S
Zr98        O104   2.298   1_655  S
Zr98        O103   2.340   1_655  S
Zr98        O108   2.396       .  S
Zr98        O106   2.395       .  S
O99         H115   0.990       .  S
O100        H114   0.990       .  S
O100        H124   0.990       .  S
Zr101       O104   2.273   1_655  S
Zr101       O106   2.384       .  S
Zr101       O107   2.387   1_655  S
Zr102       O105   2.273       .  S
Zr102       O103   2.382       .  S
Zr102       O108   2.386   1_455  S
O103        H111   0.968       .  S
O106        H110   0.958       .  S
O107        H112   0.959       .  S
O125       Zr137   2.453       .  S
O125        C127   1.289       .  A
O126       Zr163   2.382   1_565  S
O126        C127   1.273       .  A
C127        C413   1.480       .  S
O128       Zr140   2.488       .  S
O128        C130   1.295       .  A
O129       Zr164   2.422       .  S
O129        C130   1.284       .  A
C130        C346   1.512       .  S
O131       Zr140   2.456       .  S
O131        C133   1.290       .  A
O132       Zr163   2.437       .  S
O132        C133   1.287       .  A
C133        C426   1.510       .  S
O134       Zr137   2.464       .  S
O134        C136   1.290       .  A
O135       Zr164   2.380   1_565  S
O135        C136   1.279       .  A
C136        C362   1.468       .  S
Zr137       O138   2.437       .  S
Zr137       O139   2.438       .  S
Zr137       O143   2.285       .  S
Zr137       O144   2.372       .  S
Zr137       O167   2.386       .  S
Zr137       O169   2.379       .  S
O138        H181   0.990       .  S
O139        H180   0.990       .  S
O139        H184   0.990       .  S
Zr140       O141   2.441       .  S
Zr140       O142   2.434       .  S
Zr140       O143   2.287   1_545  S
Zr140       O144   2.357   1_545  S
Zr140       O168   2.383       .  S
Zr140       O170   2.387       .  S
O141        H182   0.990       .  S
O141        H185   0.991       .  S
O142        H175   0.990       .  S
O143       Zr163   2.265   1_565  S
O144       Zr164   2.381   1_565  S
O144        H171   0.961       .  S
O145       Zr157   2.497       .  S
O145        C147   1.297       .  A
O146       Zr164   2.414   1_565  S
O146        C147   1.283       .  A
C147        C317   1.509       .  S
O148       Zr160   2.455       .  S
O148        C150   1.288       .  A
O149       Zr163   2.380       .  S
O149        C150   1.275       .  A
C150        C378   1.470       .  S
O151       Zr160   2.477       .  S
O151        C153   1.292       .  A
O152       Zr164   2.392       .  S
O152        C153   1.279       .  A
C153        C333   1.495       .  S
O154       Zr157   2.458       .  S
O154        C156   1.291       .  A
O155       Zr163   2.416   1_565  S
O155        C156   1.283       .  A
C156        C394   1.505       .  S
Zr157       O158   2.441       .  S
Zr157       O159   2.435       .  S
Zr157       O166   2.293   1_565  S
Zr157       O165   2.353   1_565  S
Zr157       O169   2.382       .  S
Zr157       O167   2.381       .  S
O158        H178   0.990       .  S
O158        H183   0.990       .  S
O159        H179   0.990       .  S
Zr160       O161   2.436       .  S
Zr160       O162   2.435       .  S
Zr160       O166   2.289       .  S
Zr160       O165   2.373       .  S
Zr160       O170   2.383       .  S
Zr160       O168   2.387       .  S
O161        H177   0.990       .  S
O162        H176   0.990       .  S
O162        H186   0.990       .  S
Zr163       O166   2.272       .  S
Zr163       O168   2.384       .  S
Zr163       O169   2.388   1_545  S
Zr164       O165   2.385       .  S
Zr164       O167   2.391   1_545  S
Zr164       O170   2.385       .  S
O165        H173   0.959       .  S
O168        H172   0.970       .  S
O169        H174   0.967       .  S
C187        C247   1.499       .  S
C187        N188   1.383       .  A
C187        N192   1.383       .  A
N188        C189   1.372       .  A
C189        C682   1.481       .  S
C189        N190   1.335       .  A
N190        C191   1.335       .  A
C191        C541   1.479       .  S
C191        N192   1.372       .  A
C193        C246   1.453       .  S
C193        N194   1.360       .  A
C193        N198   1.359       .  A
N194        C195   1.359       .  A
C195        C525   1.456       .  S
C195        N196   1.346       .  A
N196        C197   1.346       .  A
C197        C637   1.456       .  S
C197        N198   1.357       .  A
C199        C283   1.494       .  S
C199        N200   1.374       .  A
C199        N204   1.369       .  A
N200        C201   1.354       .  A
C201        C397   1.472       .  S
C201        N202   1.337       .  A
N202        C203   1.346       .  A
C203        C442   1.463       .  S
C203        N204   1.371       .  A
C205        C281   1.487       .  S
C205        N206   1.364       .  A
C205        N210   1.379       .  A
N206        C207   1.359       .  A
C207        C330   1.462       .  S
C207        N208   1.341       .  A
N208        C209   1.341       .  A
C209        C506   1.483       .  S
C209        N210   1.374       .  A
C211        C249   1.484       .  S
C211        N212   1.364       .  A
C211        N216   1.375       .  A
N212        C213   1.364       .  A
C213        C557   1.455       .  S
C213        N214   1.345       .  A
N214        C215   1.338       .  A
C215        C349   1.477       .  S
C215        N216   1.360       .  A
C217        C248   1.492       .  S
C217        N218   1.367       .  A
C217        N222   1.375       .  A
N218        C219   1.368       .  A
C219        C666   1.462       .  S
C219        N220   1.347       .  A
N220        C221   1.338       .  A
C221        C429   1.480       .  S
C221        N222   1.359       .  A
C223        C279   1.491       .  S
C223        N224   1.378       .  A
C223        N228   1.364       .  A
N224        C225   1.376       .  A
C225        C490   1.487       .  S
C225        N226   1.341       .  A
N226        C227   1.342       .  A
C227        C410   1.454       .  S
C227        N228   1.357       .  A
C229        C282   1.471       .  S
C229        N230   1.368       .  A
C229        N234   1.364       .  A
N230        C231   1.365       .  A
C231        C650   1.471       .  S
C231        N232   1.346       .  A
N232        C233   1.345       .  A
C233        C381   1.462       .  S
C233        N234   1.358       .  A
O235       Zr271   2.457       .  S
O235        C246   1.297       .  A
O236       Zr270   2.622   1_445  S
O236        C247   1.330       .  A
O237       Zr243   2.536       .  S
O237        C248   1.308       .  A
O238       Zr243   2.522   1_655  S
O238        C249   1.306       .  A
O239       Zr969   2.370   1_545  S
O239        C249   1.279       .  A
O240       Zr968   2.385   1_545  S
O240        C248   1.281       .  A
O241       Zr243   2.319       .  S
O241        C247   1.270       .  A
O242       Zr939   2.423   1_554  S
O242        C246   1.289       .  A
Zr243       O938   2.419       .  S
Zr243       O244   2.349   1_455  S
Zr243       O251   2.349       .  S
Zr243       O941   2.331       .  S
Zr243       O949   2.332   1_455  S
O244       Zr270   2.348   1_545  S
O244       Zr969   2.342   1_545  S
O245       Zr271   2.372       .  S
O245       Zr272   2.320   1_545  S
O245       Zr939   2.335   1_554  S
H250        O251   0.963       .  S
O251       Zr270   2.331   1_445  S
O251       Zr968   2.334   1_545  S
H252        O253   0.961       .  S
O253       Zr271   2.374   1_655  S
O253       Zr273   2.326   1_545  S
O253       Zr939   2.324   1_654  S
O254       Zr270   2.461       .  S
O254        C277   1.297       .  A
O255       Zr271   2.613   1_665  S
O255        C278   1.329       .  A
O256       Zr968   2.425       .  S
O256        C279   1.288       .  A
O257       Zr969   2.443       .  S
O257        C280   1.292       .  A
O258       Zr273   2.454   1_545  S
O258        C281   1.294       .  A
O259       Zr272   2.412   1_545  S
O259        C282   1.286       .  A
O260       Zr274   2.548   1_455  S
O260        C283   1.310       .  A
O261       Zr274   2.537       .  S
O261        C284   1.308       .  A
O262       Zr272   2.369       .  S
O262        C283   1.278       .  A
O263       Zr273   2.379       .  S
O263        C284   1.281       .  A
O264       Zr270   2.514   1_455  S
O264        C279   1.305       .  A
O265       Zr271   2.484       .  S
O265        C282   1.300       .  A
O266       Zr271   2.494   1_655  S
O266        C281   1.302       .  A
O267       Zr270   2.478       .  S
O267        C280   1.300       .  A
O268       Zr970   2.427       .  S
O268        C277   1.291       .  A
O269       Zr274   2.320       .  S
O269        C278   1.271       .  A
Zr270       O276   2.366       .  S
Zr270       O288   2.390       .  S
Zr271       O275   2.339   1_445  S
Zr271       O286   2.342   1_545  S
Zr272       O936   2.391   1_564  S
Zr272       O952   2.420   1_554  S
Zr272       O286   2.338       .  S
Zr272       O947   2.330   1_564  S
Zr272       O972   2.315   1_454  S
Zr273       O935   2.374   1_564  S
Zr273       O953   2.442   1_554  S
Zr273       O275   2.333       .  S
Zr273       O940   2.337   1_564  S
Zr273       O984   2.333   1_554  S
Zr274       O964   2.432   1_554  S
Zr274       O275   2.352       .  S
Zr274       O286   2.350   1_655  S
Zr274       O972   2.340   1_554  S
Zr274       O984   2.340   1_554  S
O276       Zr968   2.317   1_655  S
O276       Zr970   2.342       .  S
C277        C307   1.455       .  S
C278        C301   1.494       .  S
C280        C295   1.473       .  S
C284        C289   1.494       .  S
H285        O286   0.960       .  S
H287        O288   0.967       .  S
O288       Zr969   2.337       .  S
O288       Zr970   2.336       .  S
C289        N290   1.376       .  A
C289        N294   1.372       .  A
N290        C291   1.357       .  A
C291        C314   1.477       .  S
C291        N292   1.335       .  A
N292        C293   1.345       .  A
C293        C621   1.467       .  S
C293        N294   1.372       .  A
C295        N296   1.373       .  A
C295        N300   1.363       .  A
N296        C297   1.367       .  A
C297        C573   1.473       .  S
C297        N298   1.341       .  A
N298        C299   1.340       .  A
C299        C365   1.452       .  S
C299        N300   1.357       .  A
C301        N302   1.382       .  A
C301        N306   1.380       .  A
N302        C303   1.371       .  A
C303        C602   1.481       .  S
C303        N304   1.337       .  A
N304        C305   1.337       .  A
C305        C458   1.477       .  S
C305        N306   1.370       .  A
C307        N308   1.363       .  A
C307        N312   1.358       .  A
N308        C309   1.360       .  A
C309        C589   1.461       .  S
C309        N310   1.344       .  A
N310        C311   1.347       .  A
C311        C477   1.451       .  S
C311        N312   1.353       .  A
C313        C314   1.401       .  A
C313        C318   1.406       .  A
C313        H320   1.085       .  S
C314        C315   1.408       .  A
C315        C316   1.412       .  A
C315        C322   1.505       .  S
C316        C317   1.412       .  A
C316        H321   1.083       .  S
C317        C318   1.428       .  A
C318        C319   1.512       .  S
C319        H323   1.111       .  S
C319        H324   1.110       .  S
C319        H325   1.106       .  S
C322        H326   1.110       .  S
C322        H327   1.110       .  S
C322        H328   1.110       .  S
C329        C330   1.399       .  A
C329        C334   1.404       .  A
C329        H336   1.085       .  S
C330        C331   1.408       .  A
C331        C332   1.401       .  A
C331        C338   1.509       .  S
C332        C333   1.412       .  A
C332        H337   1.083       .  S
C333        C334   1.423       .  A
C334        C335   1.507       .  S
C335        H339   1.111       .  S
C335        H340   1.110       .  S
C335        H341   1.110       .  S
C338        H342   1.107       .  S
C338        H343   1.110       .  S
C338        H344   1.111       .  S
C345        C346   1.412       .  A
C345        C350   1.411       .  A
C345        H352   1.083       .  S
C346        C347   1.430       .  A
C347        C348   1.407       .  A
C347        C354   1.510       .  S
C348        C349   1.399       .  A
C348        H353   1.085       .  S
C349        C350   1.411       .  A
C350        C351   1.506       .  S
C351        H355   1.111       .  S
C351        H356   1.110       .  S
C351        H357   1.110       .  S
C354        H358   1.110       .  S
C354        H359   1.104   1_545  S
C354        H360   1.111       .  S
C361        C362   1.402       .  A
C361        C366   1.394       .  A
C361        H368   1.085       .  S
C362        C363   1.419       .  A
C363        C364   1.401       .  A
C363        C370   1.506       .  S
C364        C365   1.396       .  A
C364        H369   1.084       .  S
C365        C366   1.410       .  A
C366        C367   1.507       .  S
C367        H371   1.111       .  S
C367        H372   1.107       .  S
C367        H373   1.110       .  S
C370        H374   1.109       .  S
C370        H375   1.106       .  S
C370        H376   1.111       .  S
C377        C378   1.409       .  A
C377        C382   1.405       .  A
C377        H384   1.084       .  S
C378        C379   1.413       .  A
C379        C380   1.394       .  A
C379        C386   1.510       .  S
C380        C381   1.402       .  A
C380        H385   1.086       .  S
C381        C382   1.406       .  A
C382        C383   1.504       .  S
C383        H387   1.111       .  S
C383        H388   1.110       .  S
C383        H389   1.110       .  S
C386        H390   1.110       .  S
C386        H391   1.106       .  S
C386        H392   1.110       .  S
C393        C394   1.413       .  A
C393        C398   1.408       .  A
C393        H400   1.083       .  S
C394        C395   1.428       .  A
C395        C396   1.404       .  A
C395        C402   1.508       .  S
C396        C397   1.397       .  A
C396        H401   1.085       .  S
C397        C398   1.408       .  A
C398        C399   1.506       .  S
C399        H403   1.111       .  S
C399        H404   1.110       .  S
C399        H405   1.110       .  S
C402        H406   1.104   1_565  S
C402        H407   1.107       .  S
C402        H408   1.111       .  S
C409        C410   1.400       .  A
C409        C414   1.398       .  A
C409        H416   1.085       .  S
C410        C411   1.405       .  A
C411        C412   1.400       .  A
C411        C418   1.505       .  S
C412        C413   1.408       .  A
C412        H417   1.084       .  S
C413        C414   1.420       .  A
C414        C415   1.510       .  S
C415        H419   1.111       .  S
C415        H420   1.110       .  S
C415        H421   1.106       .  S
C418        H422   1.110       .  S
C418        H423   1.109       .  S
C418        H424   1.111       .  S
C425        C426   1.415       .  A
C425        C430   1.411       .  A
C425        H432   1.083       .  S
C426        C427   1.424       .  A
C427        C428   1.408       .  A
C427        C434   1.508       .  S
C428        C429   1.403       .  A
C428        H433   1.085       .  S
C429        C430   1.409       .  A
C430        C431   1.506       .  S
C431        H435   1.111       .  S
C431        H436   1.110       .  S
C431        H437   1.110       .  S
C434        H438   1.106       .  S
C434        H439   1.109       .  S
C434        H440   1.111       .  S
C441        C442   1.405       .  A
C441        C446   1.403       .  A
C441        H448   1.085       .  S
C442        C443   1.405       .  A
C443        C444   1.404       .  A
C443        C450   1.506       .  S
C444        C445   1.411       .  A
C444        H449   1.084       .  S
C445        C446   1.418       .  A
C446        C447   1.510       .  S
C447        H451   1.111       .  S
C447        H452   1.111       .  S
C447        H453   1.108       .  S
C450        H454   1.110       .  S
C450        H455   1.110       .  S
C450        H456   1.111       .  S
C457        C458   1.394       .  A
C457        C462   1.404       .  A
C457        H464   1.085       .  S
C458        C459   1.419       .  A
C459        C460   1.416       .  A
C459        C466   1.505       .  S
C460        C461   1.405       .  A
C460        H465   1.083       .  S
C461        C462   1.435       .  A
C462        C463   1.513       .  S
C463        H467   1.111       .  S
C463        H468   1.108       .  S
C463        H469   1.111       .  S
C466        H470   1.106       .  S
C466        H471   1.110       .  S
C466        H472   1.111       .  S
C473        C474   1.402       .  A
C473        C478   1.393       .  A
C473        H480   1.082       .  S
C474        C475   1.419       .  A
C475        C476   1.402       .  A
C475        C482   1.505       .  S
C476        C477   1.397       .  A
C476        H481   1.084       .  S
C477        C478   1.410       .  A
C478        C479   1.513       .  S
C479        H483   1.109       .  S
C479        H484   1.099       .  S
C479        H485   1.103       .  S
C482        H486   1.110       .  S
C482        H487   1.107       .  S
C482        H488   1.111       .  S
C489        C490   1.411       .  A
C489        C494   1.424       .  A
C489        H496   1.083       .  S
C490        C491   1.416       .  A
C491        C492   1.399       .  A
C491        C498   1.511       .  S
C492        C493   1.413       .  A
C492        H497   1.084       .  S
C493        C494   1.420       .  A
C494        C495   1.503       .  S
C495        H499   1.110       .  S
C495        H500   1.110       .  S
C495        H501   1.109       .  S
C498        H502   1.110       .  S
C498        H503   1.108       .  S
C498        H504   1.109       .  S
C505        C506   1.414       .  A
C505        C510   1.421       .  A
C505        H512   1.084       .  S
C506        C507   1.407       .  A
C507        C508   1.403       .  A
C507        C514   1.510       .  S
C508        C509   1.416       .  A
C508        H513   1.082       .  S
C509        C510   1.416       .  A
C510        C511   1.504       .  S
C511        H515   1.111       .  S
C511        H516   1.110       .  S
C511        H517   1.110       .  S
C514        H518   1.109       .  S
C514        H519   1.107       .  S
C514        H520   1.111       .  S
C521        C522   1.405       .  A
C521        C526   1.403       .  A
C521        H528   1.084       .  S
C522        C523   1.413       .  A
C523        C524   1.393       .  A
C523        C530   1.511       .  S
C524        C525   1.402       .  A
C524        H529   1.085       .  S
C525        C526   1.405       .  A
C526        C527   1.503       .  S
C527        H531   1.111       .  S
C527        H532   1.110       .  S
C527        H533   1.110       .  S
C530        H534   1.108       .  S
C530        H535   1.110       .  S
C530        H536   1.110       .  S
C537        C538   1.419       .  A
C537        C542   1.401       .  A
C537        H544   1.083       .  S
C538        C539   1.417       .  A
C539        C540   1.419       .  A
C539        C546   1.505       .  S
C540        C541   1.414       .  A
C540        H545   1.084       .  S
C541        C542   1.406       .  A
C542        C543   1.508       .  S
C543        H547   1.110   1_455  S
C543        H548   1.109   1_455  S
C543        H549   1.111       .  S
C546        H550   1.110       .  S
C546        H551   1.111       .  S
C546        H552   1.106       .  S
C553        C554   1.402       .  A
C553        C558   1.398       .  A
C553        H560   1.084       .  S
C554        C555   1.424       .  A
C555        C556   1.402       .  A
C555        C562   1.508       .  S
C556        C557   1.393       .  A
C556        H561   1.084       .  S
C557        C558   1.415       .  A
C558        C559   1.511       .  S
C559        H563   1.110       .  S
C559        H564   1.106       .  S
C559        H565   1.109       .  S
C562        H566   1.108       .  S
C562        H567   1.109       .  S
C562        H568   1.111       .  S
C569        C570   1.414       .  A
C569        C574   1.399       .  A
C569        H576   1.081       .  S
C570        C571   1.413       .  A
C571        C572   1.415       .  A
C571        C578   1.504       .  S
C572        C573   1.412       .  A
C572        H577   1.084       .  S
C573        C574   1.405       .  A
C574        C575   1.510       .  S
C575        H579   1.111       .  S
C575        H580   1.109       .  S
C575        H581   1.108       .  S
C578        H582   1.110       .  S
C578        H583   1.110       .  S
C578        H584   1.111       .  S
C585        C586   1.392       .  A
C585        C590   1.388       .  A
C585        H592   1.085       .  S
C586        C587   1.416       .  A
C587        C588   1.405       .  A
C587        C594   1.506       .  S
C588        C589   1.399       .  A
C588        H593   1.084       .  S
C589        C590   1.415       .  A
C590        C591   1.503       .  S
C591        H595   1.109       .  S
C591        H596   1.111       .  S
C591        H597   1.106       .  S
C594        H598   1.109       .  S
C594        H599   1.110       .  S
C594        H600   1.111       .  S
C601        C602   1.413       .  A
C601        C606   1.420       .  A
C601        H608   1.084       .  S
C602        C603   1.404       .  A
C603        C604   1.404       .  A
C603        C610   1.509       .  S
C604        C605   1.423       .  A
C604        H609   1.082       .  S
C605        C606   1.417       .  A
C606        C607   1.503       .  S
C607        H611   1.111       .  S
C607        H612   1.110       .  S
C607        H613   1.110       .  S
C610        H614   1.110       .  S
C610        H615   1.111       .  S
C610        H616   1.111       .  S
C617        C618   1.412       .  A
C617        C622   1.408       .  A
C617        H624   1.084       .  S
C618        C619   1.413       .  A
C619        C620   1.400       .  A
C619        C626   1.510       .  S
C620        C621   1.407       .  A
C620        H625   1.085       .  S
C621        C622   1.406       .  A
C622        C623   1.505       .  S
C623        H627   1.111       .  S
C623        H628   1.110       .  S
C623        H629   1.110       .  S
C626        H630   1.108       .  S
C626        H631   1.110       .  S
C626        H632   1.111       .  S
C633        C634   1.407       .  A
C633        C638   1.403       .  A
C633        H640   1.084       .  S
C634        C635   1.416       .  A
C635        C636   1.393       .  A
C635        C642   1.512       .  S
C636        C637   1.401       .  A
C636        H641   1.085       .  S
C637        C638   1.405       .  A
C638        C639   1.504       .  S
C639        H643   1.111       .  S
C639        H644   1.110       .  S
C639        H645   1.109       .  S
C642        H646   1.110       .  S
C642        H647   1.105       .  S
C642        H648   1.111       .  S
C649        C650   1.393       .  A
C649        C654   1.399       .  A
C649        H656   1.086       .  S
C650        C651   1.414       .  A
C651        C652   1.413       .  A
C651        C658   1.504       .  S
C652        C653   1.408       .  A
C652        H657   1.083       .  S
C653        C654   1.436       .  A
C654        C655   1.515       .  S
C655        H659   1.111       .  S
C655        H660   1.105       .  S
C655        H661   1.109       .  S
C658        H662   1.109       .  S
C658        H663   1.110       .  S
C658        H664   1.111       .  S
C665        C666   1.408       .  A
C665        C670   1.399       .  A
C665        H672   1.085       .  S
C666        C667   1.403       .  A
C667        C668   1.402       .  A
C667        C674   1.505       .  S
C668        C669   1.412       .  A
C668        H673   1.084       .  S
C669        C670   1.410       .  A
C670        C671   1.510       .  S
C671        H675   1.111       .  S
C671        H676   1.110       .  S
C671        H677   1.106       .  S
C674        H678   1.110       .  S
C674        H679   1.110       .  S
C674        H680   1.111       .  S
C681        C682   1.414       .  A
C681        C686   1.419       .  A
C681        H688   1.084       .  S
C682        C683   1.403       .  A
C683        C684   1.406       .  A
C683        C690   1.508       .  S
C684        C685   1.422       .  A
C684        H689   1.082       .  S
C685        C686   1.416       .  A
C686        C687   1.504       .  S
C687        H691   1.110       .  S
C687        H692   1.110       .  S
C687        H693   1.109       .  S
C690        H694   1.110       .  S
C690        H695   1.111       .  S
C690        H696   1.111       .  S
O697       Zr709   2.433       .  S
O697        C699   1.284       .  A
O698       Zr735   2.418       .  S
O698        C699   1.282       .  A
C699       C1365   1.482       .  S
O700       Zr712   2.532       .  S
O700        C702   1.300       .  A
O701       Zr736   2.385       .  S
O701        C702   1.276       .  A
C702       C1266   1.506       .  S
O703       Zr712   2.520       .  S
O703        C705   1.301       .  A
O704       Zr735   2.370       .  S
O704        C705   1.276       .  A
C705       C1381   1.511       .  S
O706       Zr709   2.432       .  S
O706        C708   1.283       .  A
O707       Zr736   2.380       .  S
O707        C708   1.278       .  A
C708       C1282   1.452       .  S
Zr709       O710   2.437       .  S
Zr709       O711   2.436       .  S
Zr709       O715   2.276       .  S
Zr709       O716   2.360       .  S
Zr709       O739   2.388       .  S
Zr709       O741   2.364       .  S
O710        H753   0.990       .  S
O711        H752   0.990       .  S
O711        H756   0.990       .  S
Zr712       O713   2.442       .  S
Zr712       O714   2.438       .  S
Zr712       O715   2.284       .  S
Zr712       O742   2.305       .  S
Zr712       O716   2.373       .  S
Zr712       O740   2.391       .  S
O713        H754   0.990       .  S
O713        H757   0.990       .  S
O714        H747   0.990       .  S
O715       Zr735   2.255       .  S
O716       Zr736   2.383       .  S
O716        H743   0.969       .  S
O717       Zr729   2.548       .  S
O717        C719   1.305       .  A
O718       Zr736   2.359       .  S
O718        C719   1.275       .  A
C719       C1301   1.517       .  S
O720       Zr732   2.444       .  S
O720        C722   1.287       .  A
O721       Zr735   2.388       .  S
O721        C722   1.277       .  A
C722       C1330   1.474       .  S
O723       Zr732   2.475       .  S
O723        C725   1.292       .  A
O724       Zr736   2.402       .  S
O724        C725   1.279       .  A
C725       C1314   1.488       .  S
O726       Zr729   2.497       .  S
O726        C728   1.292       .  A
O727       Zr735   2.381       .  S
O727        C728   1.263       .  A
C728       C1349   1.501       .  S
Zr729       O730   2.441       .  S
Zr729       O731   2.438       .  S
Zr729       O738   2.305       .  S
Zr729       O737   2.348       .  S
Zr729       O741   2.402       .  S
Zr729       O739   2.394       .  S
O730        H750   0.990       .  S
O730        H755   0.990       .  S
O731        H751   0.990       .  S
Zr732       O733   2.440       .  S
Zr732       O734   2.436       .  S
Zr732       O738   2.293       .  S
Zr732       O742   2.286       .  S
Zr732       O737   2.361       .  S
Zr732       O740   2.380       .  S
O733        H749   0.990       .  S
O734        H748   0.990       .  S
O734        H758   0.991       .  S
Zr735       O738   2.275       .  S
Zr735       O740   2.391       .  S
Zr735       O741   2.389       .  S
Zr736       O742   2.276       .  S
Zr736       O737   2.377       .  S
Zr736       O739   2.384       .  S
O737        H745   0.961       .  S
O740        H744   0.967       .  S
O741        H746   0.974       .  S
O759       Zr771   2.534       .  S
O759        C761   1.303       .  A
O760       Zr797   2.365   1_455  S
O760        C761   1.273       .  A
C761       C1234   1.518       .  S
O762       Zr774   2.471       .  S
O762        C764   1.291       .  A
O763       Zr798   2.401   1_655  S
O763        C764   1.282       .  A
C764       C1170   1.483       .  S
O765       Zr774   2.429       .  S
O765        C767   1.283       .  A
O766       Zr797   2.410       .  S
O766        C767   1.282       .  A
C767       C1250   1.481       .  S
O768       Zr771   2.535       .  S
O768        C770   1.296       .  A
O769       Zr798   2.384       .  S
O769        C770   1.271       .  A
C770       C1189   1.519       .  S
Zr771       O772   2.440       .  S
Zr771       O773   2.438       .  S
Zr771       O777   2.288   1_455  S
Zr771       O801   2.311       .  S
Zr771       O778   2.381       .  S
Zr771       O803   2.392       .  S
O772        H815   0.990       .  S
O773        H814   0.990       .  S
O773        H818   0.990       .  S
Zr774       O775   2.440       .  S
Zr774       O776   2.438       .  S
Zr774       O777   2.292       .  S
Zr774       O778   2.361   1_655  S
Zr774       O802   2.379       .  S
Zr774       O804   2.372       .  S
O775        H816   0.989       .  S
O775        H819   0.990       .  S
O776        H809   0.990       .  S
O777       Zr797   2.258       .  S
O778       Zr798   2.386       .  S
O778        H805   0.953       .  S
O779       Zr791   2.480       .  S
O779        C781   1.293       .  A
O780       Zr798   2.395       .  S
O780        C781   1.278       .  A
C781       C1141   1.487       .  S
O782       Zr794   2.536       .  S
O782        C784   1.302       .  A
O783       Zr797   2.372       .  S
O783        C784   1.272       .  A
C784       C1205   1.513       .  S
O785       Zr794   2.569       .  S
O785        C787   1.312       .  A
O786       Zr798   2.348   1_655  S
O786        C787   1.270       .  A
C787       C1157   1.515       .  S
O788       Zr791   2.454       .  S
O788        C790   1.287       .  A
O789       Zr797   2.393   1_455  S
O789        C790   1.277       .  A
C790       C1218   1.478       .  S
Zr791       O792   2.444       .  S
Zr791       O793   2.436       .  S
Zr791       O800   2.288       .  S
Zr791       O801   2.293       .  S
Zr791       O799   2.367       .  S
Zr791       O803   2.388       .  S
O792        H812   0.991       .  S
O792        H817   0.990       .  S
O793        H813   0.990       .  S
Zr794       O795   2.436       .  S
Zr794       O796   2.438       .  S
Zr794       O800   2.296   1_655  S
Zr794       O799   2.341   1_655  S
Zr794       O804   2.398       .  S
Zr794       O802   2.393       .  S
O795        H811   0.990       .  S
O796        H810   0.990       .  S
O796        H820   0.990       .  S
Zr797       O800   2.270   1_655  S
Zr797       O802   2.386       .  S
Zr797       O803   2.385   1_655  S
Zr798       O801   2.277       .  S
Zr798       O799   2.384       .  S
Zr798       O804   2.386   1_455  S
O799        H807   0.963       .  S
O802        H806   0.974       .  S
O803        H808   0.956       .  S
O821       Zr833   2.461       .  S
O821        C823   1.290       .  A
O822       Zr859   2.382   1_565  S
O822        C823   1.273       .  A
C823       C1109   1.483       .  S
O824       Zr836   2.494       .  S
O824        C826   1.296       .  A
O825       Zr860   2.411       .  S
O825        C826   1.282       .  A
C826       C1042   1.510       .  S
O827       Zr836   2.469       .  S
O827        C829   1.293       .  A
O828       Zr859   2.431       .  S
O828        C829   1.285       .  A
C829       C1122   1.513       .  S
O830       Zr833   2.467       .  S
O830        C832   1.290       .  A
O831       Zr860   2.372   1_565  S
O831        C832   1.278       .  A
C832       C1058   1.468       .  S
Zr833       O834   2.438       .  S
Zr833       O835   2.436       .  S
Zr833       O839   2.281       .  S
Zr833       O840   2.367       .  S
Zr833       O863   2.391       .  S
Zr833       O865   2.381       .  S
O834        H877   0.990       .  S
O835        H876   0.990       .  S
O835        H880   0.990       .  S
Zr836       O837   2.444       .  S
Zr836       O838   2.435       .  S
Zr836       O839   2.286   1_545  S
Zr836       O840   2.356   1_545  S
Zr836       O864   2.384       .  S
Zr836       O866   2.390       .  S
O837        H878   0.990       .  S
O837        H881   0.991       .  S
O838        H871   0.990       .  S
O839       Zr859   2.266   1_565  S
O840       Zr860   2.384   1_565  S
O840        H867   0.952       .  S
O841       Zr853   2.510       .  S
O841        C843   1.300       .  A
O842       Zr860   2.410   1_565  S
O842        C843   1.282       .  A
C843       C1013   1.511       .  S
O844       Zr856   2.448       .  S
O844        C846   1.287       .  A
O845       Zr859   2.377       .  S
O845        C846   1.274       .  A
C846       C1074   1.469       .  S
O847       Zr856   2.471       .  S
O847        C849   1.290       .  A
O848       Zr860   2.397       .  S
O848        C849   1.280       .  A
C849       C1029   1.495       .  S
O850       Zr853   2.457       .  S
O850        C852   1.291       .  A
O851       Zr859   2.419   1_565  S
O851        C852   1.283       .  A
C852       C1090   1.506       .  S
Zr853       O854   2.440       .  S
Zr853       O855   2.437       .  S
Zr853       O862   2.293   1_565  S
Zr853       O861   2.344   1_565  S
Zr853       O865   2.391       .  S
Zr853       O863   2.384       .  S
O854        H874   0.990       .  S
O854        H879   0.990       .  S
O855        H875   0.990       .  S
Zr856       O857   2.436       .  S
Zr856       O858   2.434       .  S
Zr856       O862   2.290       .  S
Zr856       O861   2.374       .  S
Zr856       O866   2.384       .  S
Zr856       O864   2.387       .  S
O857        H873   0.990       .  S
O858        H872   0.990       .  S
O858        H882   0.990       .  S
Zr859       O862   2.270       .  S
Zr859       O864   2.386       .  S
Zr859       O865   2.390   1_545  S
Zr860       O861   2.375       .  S
Zr860       O863   2.391   1_545  S
Zr860       O866   2.385       .  S
O861        H869   0.960       .  S
O864        H868   0.967       .  S
O865        H870   0.962       .  S
C883        C943   1.492       .  S
C883        N884   1.380       .  A
C883        N888   1.382       .  A
N884        C885   1.369       .  A
C885       C1378   1.474       .  S
C885        N886   1.336       .  A
N886        C887   1.335       .  A
C887       C1237   1.480       .  S
C887        N888   1.372       .  A
C889        C942   1.457       .  S
C889        N890   1.362       .  A
C889        N894   1.358       .  A
N890        C891   1.360       .  A
C891       C1221   1.462       .  S
C891        N892   1.347       .  A
N892        C893   1.346       .  A
C893       C1333   1.456       .  S
C893        N894   1.357       .  A
C895        C979   1.491       .  S
C895        N896   1.374       .  A
C895        N900   1.369       .  A
N896        C897   1.354       .  A
C897       C1093   1.474       .  S
C897        N898   1.338       .  A
N898        C899   1.347       .  A
C899       C1138   1.464       .  S
C899        N900   1.370       .  A
C901        C977   1.486       .  S
C901        N902   1.364       .  A
C901        N906   1.377       .  A
N902        C903   1.359       .  A
C903       C1026   1.462       .  S
C903        N904   1.343       .  A
N904        C905   1.343       .  A
C905       C1202   1.485       .  S
C905        N906   1.372       .  A
C907        C945   1.491       .  S
C907        N908   1.366       .  A
C907        N912   1.377       .  A
N908        C909   1.366       .  A
C909       C1253   1.456       .  S
C909        N910   1.344       .  A
N910        C911   1.337       .  A
C911       C1045   1.477       .  S
C911        N912   1.360       .  A
C913        C944   1.494       .  S
C913        N914   1.371       .  A
C913        N918   1.376       .  A
N914        C915   1.370       .  A
C915       C1362   1.464       .  S
C915        N916   1.344       .  A
N916        C917   1.335       .  A
C917       C1125   1.478       .  S
C917        N918   1.359       .  A
C919        C975   1.484       .  S
C919        N920   1.377       .  A
C919        N924   1.361       .  A
N920        C921   1.375       .  A
C921       C1186   1.487       .  S
C921        N922   1.342       .  A
N922        C923   1.343       .  A
C923       C1106   1.454       .  S
C923        N924   1.355       .  A
C925        C978   1.477       .  S
C925        N926   1.372       .  A
C925        N930   1.363       .  A
N926        C927   1.368       .  A
C927       C1346   1.471       .  S
C927        N928   1.344       .  A
N928        C929   1.342       .  A
C929       C1077   1.459       .  S
C929        N930   1.358       .  A
O931       Zr967   2.467       .  S
O931        C942   1.298       .  A
O932       Zr966   2.613   1_445  S
O932        C943   1.328       .  A
O933       Zr939   2.533       .  S
O933        C944   1.307       .  A
O934       Zr939   2.535   1_655  S
O934        C945   1.309       .  A
O935        C945   1.279       .  A
O936        C944   1.282       .  A
O937       Zr939   2.313       .  S
O937        C943   1.269       .  A
O938        C942   1.288       .  A
Zr939       O940   2.348   1_455  S
Zr939       O947   2.347       .  S
O940       Zr966   2.342   1_545  S
O941       Zr967   2.368       .  S
O941       Zr968   2.319   1_545  S
H946        O947   0.962       .  S
O947       Zr966   2.328   1_445  S
H948        O949   0.961       .  S
O949       Zr967   2.373   1_655  S
O949       Zr969   2.329   1_545  S
O950       Zr966   2.441       .  S
O950        C973   1.294       .  A
O951       Zr967   2.615   1_665  S
O951        C974   1.329       .  A
O952        C975   1.287       .  A
O953        C976   1.292       .  A
O954       Zr969   2.460   1_545  S
O954        C977   1.295       .  A
O955       Zr968   2.424   1_545  S
O955        C978   1.288       .  A
O956       Zr970   2.543   1_455  S
O956        C979   1.309       .  A
O957       Zr970   2.551       .  S
O957        C980   1.311       .  A
O958       Zr968   2.369       .  S
O958        C979   1.279       .  A
O959       Zr969   2.385       .  S
O959        C980   1.281       .  A
O960       Zr966   2.501   1_455  S
O960        C975   1.303       .  A
O961       Zr967   2.487       .  S
O961        C978   1.300       .  A
O962       Zr967   2.482   1_655  S
O962        C977   1.299       .  A
O963       Zr966   2.476       .  S
O963        C976   1.299       .  A
O964        C973   1.292       .  A
O965       Zr970   2.308       .  S
O965        C974   1.269       .  A
Zr966       O972   2.371       .  S
Zr966       O984   2.383       .  S
Zr967       O971   2.344   1_445  S
Zr967       O982   2.343   1_545  S
Zr968       O982   2.343       .  S
Zr969       O971   2.327       .  S
Zr970       O971   2.347       .  S
Zr970       O982   2.357   1_655  S
C973       C1003   1.447       .  S
C974        C997   1.492       .  S
C976        C991   1.473       .  S
C980        C985   1.503       .  S
H981        O982   0.959       .  S
H983        O984   0.966       .  S
C985        N986   1.379       .  A
C985        N990   1.373       .  A
N986        C987   1.361       .  A
C987       C1010   1.483       .  S
C987        N988   1.336       .  A
N988        C989   1.345       .  A
C989       C1317   1.466       .  S
C989        N990   1.372       .  A
C991        N992   1.376       .  A
C991        N996   1.361       .  A
N992        C993   1.370       .  A
C993       C1269   1.477       .  S
C993        N994   1.340       .  A
N994        C995   1.340       .  A
C995       C1061   1.448       .  S
C995        N996   1.355       .  A
C997        N998   1.382       .  A
C997       N1002   1.381       .  A
N998        C999   1.371       .  A
C999       C1298   1.477       .  S
C999       N1000   1.336       .  A
N1000      C1001   1.336       .  A
C1001      C1154   1.478       .  S
C1001      N1002   1.370       .  A
C1003      N1004   1.363       .  A
C1003      N1008   1.358       .  A
N1004      C1005   1.358       .  A
C1005      C1285   1.455       .  S
C1005      N1006   1.342       .  A
N1006      C1007   1.344       .  A
C1007      C1173   1.450       .  S
C1007      N1008   1.352       .  A
C1009      C1010   1.402       .  A
C1009      C1014   1.408       .  A
C1009      H1016   1.085       .  S
C1010      C1011   1.410       .  A
C1011      C1012   1.415       .  A
C1011      C1018   1.504       .  S
C1012      C1013   1.412       .  A
C1012      H1017   1.083       .  S
C1013      C1014   1.428       .  A
C1014      C1015   1.512       .  S
C1015      H1019   1.111       .  S
C1015      H1020   1.110       .  S
C1015      H1021   1.107       .  S
C1018      H1022   1.110       .  S
C1018      H1023   1.110       .  S
C1018      H1024   1.111       .  S
C1025      C1026   1.400       .  A
C1025      C1030   1.406       .  A
C1025      H1032   1.085       .  S
C1026      C1027   1.407       .  A
C1027      C1028   1.398       .  A
C1027      C1034   1.509       .  S
C1028      C1029   1.410       .  A
C1028      H1033   1.083       .  S
C1029      C1030   1.424       .  A
C1030      C1031   1.507       .  S
C1031      H1035   1.111       .  S
C1031      H1036   1.110       .  S
C1031      H1037   1.110       .  S
C1034      H1038   1.108       .  S
C1034      H1039   1.110       .  S
C1034      H1040   1.111       .  S
C1041      C1042   1.411       .  A
C1041      C1046   1.410       .  A
C1041      H1048   1.083       .  S
C1042      C1043   1.430       .  A
C1043      C1044   1.407       .  A
C1043      C1050   1.511       .  S
C1044      C1045   1.399       .  A
C1044      H1049   1.085       .  S
C1045      C1046   1.412       .  A
C1046      C1047   1.506       .  S
C1047      H1051   1.111       .  S
C1047      H1052   1.110       .  S
C1047      H1053   1.110       .  S
C1050      H1054   1.110       .  S
C1050      H1055   1.104   1_545  S
C1050      H1056   1.111       .  S
C1057      C1058   1.402       .  A
C1057      C1062   1.392       .  A
C1057      H1064   1.085       .  S
C1058      C1059   1.418       .  A
C1059      C1060   1.401       .  A
C1059      C1066   1.506       .  S
C1060      C1061   1.396       .  A
C1060      H1065   1.085       .  S
C1061      C1062   1.409       .  A
C1062      C1063   1.508       .  S
C1063      H1067   1.111       .  S
C1063      H1068   1.107       .  S
C1063      H1069   1.110       .  S
C1066      H1070   1.109       .  S
C1066      H1071   1.107       .  S
C1066      H1072   1.111       .  S
C1073      C1074   1.408       .  A
C1073      C1078   1.403       .  A
C1073      H1080   1.084       .  S
C1074      C1075   1.416       .  A
C1075      C1076   1.394       .  A
C1075      C1082   1.511       .  S
C1076      C1077   1.403       .  A
C1076      H1081   1.086       .  S
C1077      C1078   1.404       .  A
C1078      C1079   1.504       .  S
C1079      H1083   1.111       .  S
C1079      H1084   1.110       .  S
C1079      H1085   1.110       .  S
C1082      H1086   1.110       .  S
C1082      H1087   1.107       .  S
C1082      H1088   1.110       .  S
C1089      C1090   1.413       .  A
C1089      C1094   1.408       .  A
C1089      H1096   1.083       .  S
C1090      C1091   1.428       .  A
C1091      C1092   1.405       .  A
C1091      C1098   1.508       .  S
C1092      C1093   1.398       .  A
C1092      H1097   1.085       .  S
C1093      C1094   1.408       .  A
C1094      C1095   1.506       .  S
C1095      H1099   1.111       .  S
C1095      H1100   1.110       .  S
C1095      H1101   1.110       .  S
C1098      H1102   1.103   1_565  S
C1098      H1103   1.108       .  S
C1098      H1104   1.111       .  S
C1105      C1106   1.399       .  A
C1105      C1110   1.399       .  A
C1105      H1112   1.085       .  S
C1106      C1107   1.405       .  A
C1107      C1108   1.401       .  A
C1107      C1114   1.506       .  S
C1108      C1109   1.409       .  A
C1108      H1113   1.083       .  S
C1109      C1110   1.421       .  A
C1110      C1111   1.512       .  S
C1111      H1115   1.111       .  S
C1111      H1116   1.110       .  S
C1111      H1117   1.106       .  S
C1114      H1118   1.110       .  S
C1114      H1119   1.110       .  S
C1114      H1120   1.111       .  S
C1121      C1122   1.414       .  A
C1121      C1126   1.411       .  A
C1121      H1128   1.083       .  S
C1122      C1123   1.427       .  A
C1123      C1124   1.409       .  A
C1123      C1130   1.508       .  S
C1124      C1125   1.403       .  A
C1124      H1129   1.085       .  S
C1125      C1126   1.408       .  A
C1126      C1127   1.506       .  S
C1127      H1131   1.110       .  S
C1127      H1132   1.110       .  S
C1127      H1133   1.110       .  S
C1130      H1134   1.102       .  S
C1130      H1135   1.109       .  S
C1130      H1136   1.111       .  S
C1137      C1138   1.404       .  A
C1137      C1142   1.402       .  A
C1137      H1144   1.085       .  S
C1138      C1139   1.405       .  A
C1139      C1140   1.406       .  A
C1139      C1146   1.506       .  S
C1140      C1141   1.412       .  A
C1140      H1145   1.084       .  S
C1141      C1142   1.418       .  A
C1142      C1143   1.511       .  S
C1143      H1147   1.111       .  S
C1143      H1148   1.110       .  S
C1143      H1149   1.106       .  S
C1146      H1150   1.110       .  S
C1146      H1151   1.110       .  S
C1146      H1152   1.111       .  S
C1153      C1154   1.393       .  A
C1153      C1158   1.406       .  A
C1153      H1160   1.085       .  S
C1154      C1155   1.419       .  A
C1155      C1156   1.417       .  A
C1155      C1162   1.506       .  S
C1156      C1157   1.406       .  A
C1156      H1161   1.083       .  S
C1157      C1158   1.439       .  A
C1158      C1159   1.515       .  S
C1159      H1163   1.111       .  S
C1159      H1164   1.107   1_655  S
C1159      H1165   1.110       .  S
C1162      H1166   1.108       .  S
C1162      H1167   1.110       .  S
C1162      H1168   1.110       .  S
C1169      C1170   1.405       .  A
C1169      C1174   1.396       .  A
C1169      H1176   1.082       .  S
C1170      C1171   1.421       .  A
C1171      C1172   1.402       .  A
C1171      C1178   1.504       .  S
C1172      C1173   1.396       .  A
C1172      H1177   1.085       .  S
C1173      C1174   1.410       .  A
C1174      C1175   1.513       .  S
C1175      H1179   1.109       .  S
C1175      H1180   1.099       .  S
C1175      H1181   1.104       .  S
C1178      H1182   1.110       .  S
C1178      H1183   1.108       .  S
C1178      H1184   1.111       .  S
C1185      C1186   1.411       .  A
C1185      C1190   1.424       .  A
C1185      H1192   1.084       .  S
C1186      C1187   1.415       .  A
C1187      C1188   1.399       .  A
C1187      C1194   1.512       .  S
C1188      C1189   1.413       .  A
C1188      H1193   1.084       .  S
C1189      C1190   1.421       .  A
C1190      C1191   1.503       .  S
C1191      H1195   1.111       .  S
C1191      H1196   1.110       .  S
C1191      H1197   1.110       .  S
C1194      H1198   1.110       .  S
C1194      H1199   1.108       .  S
C1194      H1200   1.110       .  S
C1201      C1202   1.414       .  A
C1201      C1206   1.419       .  A
C1201      H1208   1.084       .  S
C1202      C1203   1.407       .  A
C1203      C1204   1.404       .  A
C1203      C1210   1.509       .  S
C1204      C1205   1.417       .  A
C1204      H1209   1.082       .  S
C1205      C1206   1.414       .  A
C1206      C1207   1.503       .  S
C1207      H1211   1.110       .  S
C1207      H1212   1.110       .  S
C1207      H1213   1.110       .  S
C1210      H1214   1.109       .  S
C1210      H1215   1.107       .  S
C1210      H1216   1.111       .  S
C1217      C1218   1.409       .  A
C1217      C1222   1.408       .  A
C1217      H1224   1.084       .  S
C1218      C1219   1.416       .  A
C1219      C1220   1.395       .  A
C1219      C1226   1.510       .  S
C1220      C1221   1.401       .  A
C1220      H1225   1.086       .  S
C1221      C1222   1.406       .  A
C1222      C1223   1.504       .  S
C1223      H1227   1.111       .  S
C1223      H1228   1.111       .  S
C1223      H1229   1.110       .  S
C1226      H1230   1.108       .  S
C1226      H1231   1.110       .  S
C1226      H1232   1.111       .  S
C1233      C1234   1.421       .  A
C1233      C1238   1.402       .  A
C1233      H1240   1.083       .  S
C1234      C1235   1.417       .  A
C1235      C1236   1.419       .  A
C1235      C1242   1.504       .  S
C1236      C1237   1.413       .  A
C1236      H1241   1.084       .  S
C1237      C1238   1.407       .  A
C1238      C1239   1.509       .  S
C1239      H1243   1.110   1_455  S
C1239      H1244   1.109       .  S
C1239      H1245   1.111       .  S
C1242      H1246   1.110       .  S
C1242      H1247   1.111       .  S
C1242      H1248   1.108       .  S
C1249      C1250   1.402       .  A
C1249      C1254   1.398       .  A
C1249      H1256   1.084       .  S
C1250      C1251   1.425       .  A
C1251      C1252   1.402       .  A
C1251      C1258   1.509       .  S
C1252      C1253   1.394       .  A
C1252      H1257   1.084       .  S
C1253      C1254   1.415       .  A
C1254      C1255   1.511       .  S
C1255      H1259   1.110       .  S
C1255      H1260   1.106       .  S
C1255      H1261   1.109       .  S
C1258      H1262   1.108       .  S
C1258      H1263   1.110       .  S
C1258      H1264   1.111       .  S
C1265      C1266   1.416       .  A
C1265      C1270   1.402       .  A
C1265      H1272   1.080       .  S
C1266      C1267   1.413       .  A
C1267      C1268   1.417       .  A
C1267      C1274   1.503       .  S
C1268      C1269   1.413       .  A
C1268      H1273   1.084       .  S
C1269      C1270   1.405       .  A
C1270      C1271   1.510       .  S
C1271      H1275   1.110       .  S
C1271      H1276   1.108       .  S
C1271      H1277   1.107       .  S
C1274      H1278   1.110       .  S
C1274      H1279   1.110       .  S
C1274      H1280   1.111       .  S
C1281      C1282   1.392       .  A
C1281      C1286   1.386       .  A
C1281      H1288   1.086       .  S
C1282      C1283   1.418       .  A
C1283      C1284   1.401       .  A
C1283      C1290   1.508       .  S
C1284      C1285   1.397       .  A
C1284      H1289   1.084       .  S
C1285      C1286   1.415       .  A
C1286      C1287   1.502       .  S
C1287      H1291   1.111       .  S
C1287      H1292   1.109       .  S
C1287      H1293   1.104       .  S
C1290      H1294   1.110       .  S
C1290      H1295   1.104       .  S
C1290      H1296   1.111       .  S
C1297      C1298   1.413       .  A
C1297      C1302   1.420       .  A
C1297      H1304   1.084       .  S
C1298      C1299   1.404       .  A
C1299      C1300   1.400       .  A
C1299      C1306   1.510       .  S
C1300      C1301   1.420       .  A
C1300      H1305   1.082       .  S
C1301      C1302   1.419       .  A
C1302      C1303   1.504       .  S
C1303      H1307   1.111       .  S
C1303      H1308   1.110       .  S
C1303      H1309   1.110       .  S
C1306      H1310   1.110       .  S
C1306      H1311   1.110       .  S
C1306      H1312   1.111       .  S
C1313      C1314   1.412       .  A
C1313      C1318   1.406       .  A
C1313      H1320   1.084       .  S
C1314      C1315   1.417       .  A
C1315      C1316   1.401       .  A
C1315      C1322   1.511       .  S
C1316      C1317   1.405       .  A
C1316      H1321   1.085       .  S
C1317      C1318   1.406       .  A
C1318      C1319   1.505       .  S
C1319      H1323   1.111       .  S
C1319      H1324   1.110       .  S
C1319      H1325   1.110       .  S
C1322      H1326   1.108       .  S
C1322      H1327   1.110       .  S
C1322      H1328   1.111       .  S
C1329      C1330   1.407       .  A
C1329      C1334   1.403       .  A
C1329      H1336   1.084       .  S
C1330      C1331   1.416       .  A
C1331      C1332   1.395       .  A
C1331      C1338   1.512       .  S
C1332      C1333   1.401       .  A
C1332      H1337   1.085       .  S
C1333      C1334   1.406       .  A
C1334      C1335   1.505       .  S
C1335      H1339   1.111       .  S
C1335      H1340   1.110       .  S
C1335      H1341   1.109       .  S
C1338      H1342   1.110       .  S
C1338      H1343   1.105       .  S
C1338      H1344   1.111       .  S
C1345      C1346   1.396       .  A
C1345      C1350   1.400       .  A
C1345      H1352   1.086       .  S
C1346      C1347   1.414       .  A
C1347      C1348   1.413       .  A
C1347      C1354   1.504       .  S
C1348      C1349   1.408       .  A
C1348      H1353   1.083       .  S
C1349      C1350   1.433       .  A
C1350      C1351   1.516       .  S
C1351      H1355   1.111       .  S
C1351      H1356   1.106       .  S
C1351      H1357   1.110       .  S
C1354      H1358   1.109       .  S
C1354      H1359   1.110       .  S
C1354      H1360   1.111       .  S
C1361      C1362   1.409       .  A
C1361      C1366   1.400       .  A
C1361      H1368   1.085       .  S
C1362      C1363   1.404       .  A
C1363      C1364   1.404       .  A
C1363      C1370   1.505       .  S
C1364      C1365   1.412       .  A
C1364      H1369   1.084       .  S
C1365      C1366   1.412       .  A
C1366      C1367   1.509       .  S
C1367      H1371   1.111       .  S
C1367      H1372   1.110       .  S
C1367      H1373   1.107       .  S
C1370      H1374   1.110       .  S
C1370      H1375   1.110       .  S
C1370      H1376   1.111       .  S
C1377      C1378   1.413       .  A
C1377      C1382   1.417       .  A
C1377      H1384   1.084       .  S
C1378      C1379   1.403       .  A
C1379      C1380   1.401       .  A
C1379      C1386   1.508       .  S
C1380      C1381   1.419       .  A
C1380      H1385   1.082       .  S
C1381      C1382   1.418       .  A
C1382      C1383   1.506       .  S
C1383      H1387   1.111       .  S
C1383      H1388   1.110       .  S
C1383      H1389   1.109       .  S
C1386      H1390   1.111       .  S
C1386      H1391   1.110       .  S
C1386      H1392   1.111       .  S
