geometry optimzed in LAMMPS
_audit_creation_date              2020-11-30 
_audit_creation_method            'lammps2cif' 
_symmetry_space_group_name_H-M    'P1' 
_symmetry_Int_Tables_number       1 
_symmetry_cell_setting            triclinic 
loop_ 
_symmetry_equiv_pos_as_xyz 
  x,y,z 
_cell_length_a                    58.32476190072199 
_cell_length_b                    58.22509005412608 
_cell_length_c                    58.214922450228606 
_cell_angle_alpha                 89.89764262262892 
_cell_angle_beta                  89.86988721850808 
_cell_angle_gamma                 89.7453347491134 
loop_ 
_atom_site_label 
_atom_site_type_symbol 
_atom_site_fract_x 
_atom_site_fract_y 
_atom_site_fract_z 
_atom_site_charge 
N1          N  0.34102476  0.87493678  0.73607487    -0.07580
N2          N  0.32866143  0.88237981  0.75338945    -0.59700
N3          N  0.36514875  0.82691100  0.71813609    -0.07260
N4          N  0.36284872  0.80550066  0.72538347    -0.61830
N5          N  0.37876539  0.83820123  0.73181124    -0.06860
N6          N  0.38662904  0.82489198  0.74815596    -0.59670
N7          N  0.32822414  0.86424353  0.72118505    -0.06530
N8          N  0.30666123  0.86380655  0.72814110    -0.62180
C9          C  0.30722394  0.87555636  0.74817843     0.94600
C10         C  0.37655881  0.80460117  0.74414279     0.94380
N11         N  0.37210746  0.83891851  0.64772909    -0.07760
N12         N  0.37822249  0.82241458  0.63298378    -0.60280
N13         N  0.32553078  0.86533412  0.66838579    -0.05880
N14         N  0.30317476  0.86396411  0.66781360    -0.61530
N15         N  0.33375306  0.87655643  0.65050041    -0.07790
N16         N  0.31611495  0.88286155  0.63720955    -0.60540
N17         N  0.36173844  0.82927361  0.66540948    -0.05530
N18         N  0.36059259  0.80699994  0.66330589    -0.61620
Mn19       Mn  0.34498637  0.84636778  0.69311916     1.18440
C20         C  0.37072391  0.80254204  0.64322473     0.96680
C21         C  0.29707220  0.87461587  0.64847833     0.97340
N22         N  0.41470672  0.87502291  0.73067136    -0.07810
N23         N  0.42871151  0.86670019  0.74613086    -0.64120
N24         N  0.38787430  0.92485145  0.72039726    -0.06620
N25         N  0.38879970  0.94612699  0.72830609    -0.64800
N26         N  0.37707308  0.91167054  0.73501125    -0.07320
N27         N  0.36983873  0.92342660  0.75272477    -0.64390
N28         N  0.42557630  0.88843737  0.71633985    -0.06220
N29         N  0.44740386  0.89004858  0.72217368    -0.65080
Mn30       Mn  0.37797190  0.87492837  0.73335877     1.10660
C31         C  0.44908937  0.87606748  0.74073952     0.97900
C32         C  0.37734732  0.94476878  0.74859488     0.97980
N33         N  0.37419092  0.91778303  0.64972021    -0.07330
N34         N  0.36666183  0.93472087  0.63617221    -0.62700
N35         N  0.42263819  0.89147444  0.66371287    -0.06650
N36         N  0.44496483  0.89199399  0.66144863    -0.59430
N37         N  0.41277819  0.87987908  0.64699117    -0.07960
N38         N  0.42917734  0.87206480  0.63290325    -0.62270
N39         N  0.38578923  0.92693360  0.66684842    -0.06940
N40         N  0.38647465  0.94935987  0.66538981    -0.59450
Mn41       Mn  0.37318568  0.87833342  0.64679417     1.20190
Mn42       Mn  0.40561392  0.90832756  0.69167248     1.10090
Cl43       Cl  0.37537271  0.87712695  0.69047694    -0.87420
C44         C  0.37459006  0.95435034  0.64640051     0.94910
C45         C  0.44920234  0.87999748  0.64236164     0.94710
N46         N  0.21211174  0.86135452  0.84026953    -0.07580
N47         N  0.21957248  0.86056221  0.81883583    -0.59700
N48         N  0.21939916  0.83564725  0.89140498    -0.07260
N49         N  0.23234518  0.82075099  0.90225578    -0.61830
N50         N  0.20487735  0.82514103  0.87798393    -0.06860
N51         N  0.20791024  0.80268572  0.87909614    -0.59670
N52         N  0.22716172  0.87146176  0.85344292    -0.06530
N53         N  0.24499667  0.87809866  0.84145721    -0.62180
C54         C  0.24017337  0.87112518  0.81999768     0.94600
C55         C  0.22501144  0.80021026  0.89457613     0.94380
N56         N  0.20629937  0.88746495  0.93724271    -0.07760
N57         N  0.21147831  0.88962670  0.95922136    -0.60280
N58         N  0.22781164  0.90958307  0.88943294    -0.05880
N59         N  0.24552360  0.92153814  0.88218623    -0.61530
N60         N  0.21239692  0.92305353  0.89881996    -0.07790
N61         N  0.21935361  0.94459122  0.89838377    -0.60540
N62         N  0.22076545  0.87350251  0.92717913    -0.05530
N63         N  0.23581753  0.86555826  0.94191115    -0.61620
Mn64       Mn  0.22405123  0.87241996  0.89036709     1.18440
C65         C  0.22973035  0.87541855  0.96193950     0.96680
C66         C  0.23992259  0.94340967  0.88755891     0.97340
N67         N  0.15327569  0.82912773  0.87157651    -0.07810
N68         N  0.15045799  0.80681744  0.87137249    -0.64120
N69         N  0.14210522  0.87768784  0.84378680    -0.06620
N70         N  0.13013412  0.88646000  0.82630977    -0.64800
N71         N  0.15904421  0.86517490  0.83534788    -0.07320
N72         N  0.15889443  0.86493254  0.81279622    -0.64390
N73         N  0.13662060  0.83977959  0.88264678    -0.06220
N74         N  0.12196987  0.82401590  0.89055606    -0.65080
Mn75       Mn  0.18229028  0.84509515  0.85587396     1.10660
C76         C  0.13103419  0.80353982  0.88304967     0.97900
C77         C  0.14098541  0.87823778  0.80704491     0.97980
N78         N  0.15899307  0.92737842  0.89566373    -0.07330
N79         N  0.15825749  0.94990805  0.89570301    -0.62700
N80         N  0.13702458  0.88134304  0.92272688    -0.06650
N81         N  0.12228558  0.87444979  0.93893519    -0.59430
N82         N  0.15399229  0.89230059  0.93280054    -0.07960
N83         N  0.15132832  0.89318932  0.95509216    -0.62270
N84         N  0.14203186  0.91852353  0.88363183    -0.06940
N85         N  0.12947502  0.93562454  0.87490896    -0.59450
Mn86       Mn  0.18279062  0.90787368  0.91617778     1.20190
Mn87       Mn  0.13766796  0.87936094  0.88317825     1.10090
Cl88       Cl  0.18112499  0.87639123  0.88623090    -0.87420
C89         C  0.13994443  0.95503241  0.88285233     0.94910
C90         C  0.13166831  0.88218358  0.95911434     0.94710
N91         N  0.41770479  0.71744460  0.89878187    -0.07580
N92         N  0.43914998  0.72464770  0.89864957    -0.59700
N93         N  0.36902363  0.72747892  0.92789400    -0.07260
N94         N  0.36144460  0.74258941  0.94291105    -0.61830
N95         N  0.38278926  0.71261979  0.93773823    -0.06860
N96         N  0.38519702  0.71751757  0.95974549    -0.59670
N97         N  0.40420000  0.73276853  0.88928732    -0.06530
N98         N  0.41597036  0.75058222  0.88221788    -0.62180
C99         C  0.43774989  0.74524588  0.88790016     0.94600
C100        C  0.37127289  0.73592571  0.96279633     0.94380
N101        N  0.31988650  0.71105800  0.87902747    -0.07760
N102        N  0.29756729  0.71482498  0.87947024    -0.60280
N103        N  0.36610634  0.73192721  0.85347978    -0.05880
N104        N  0.37445044  0.74819008  0.84028036    -0.61530
N105        N  0.35607586  0.71620548  0.84105766    -0.07790
N106        N  0.35714528  0.72139819  0.81903137    -0.60540
N107        N  0.33050593  0.72576915  0.89218554    -0.05530
N108        N  0.31579250  0.73953799  0.90228544    -0.61620
Mn109      Mn  0.36724438  0.72993106  0.89073520     1.18440
C110        C  0.29532426  0.73260181  0.89421356     0.96680
C111        C  0.36890705  0.74130764  0.81885637     0.97340
N112        N  0.38691043  0.65992752  0.93381500    -0.07810
N113        N  0.38910940  0.65714106  0.95597022    -0.64120
N114        N  0.41256992  0.64692908  0.88465057    -0.06620
N115        N  0.42953526  0.63400007  0.87622196    -0.64800
N116        N  0.42158212  0.66399359  0.89643173    -0.07320
N117        N  0.44406835  0.66296543  0.89657528    -0.64390
N118        N  0.37623529  0.64253649  0.92413233    -0.06220
N119        N  0.37103227  0.62728307  0.94051918    -0.65080
Mn120      Mn  0.40246314  0.68830864  0.91671889     1.10660
C121        C  0.37960500  0.63681853  0.96029509     0.97900
C122        C  0.44906955  0.64441099  0.88395988     0.97980
N123        N  0.35856739  0.66372597  0.83695171    -0.07330
N124        N  0.35751845  0.66333061  0.81444867    -0.62700
N125        N  0.33367745  0.64218702  0.88443290    -0.06650
N126        N  0.31762730  0.62741775  0.89156519    -0.59430
N127        N  0.32332263  0.65920076  0.87363132    -0.07960
N128        N  0.30108951  0.65657578  0.87282321    -0.62270
N129        N  0.37112308  0.64673881  0.84517223    -0.06940
N130        N  0.37912474  0.63443013  0.82751949    -0.59450
Mn131      Mn  0.33937152  0.68750868  0.85744466     1.20190
Mn132      Mn  0.37341851  0.64288221  0.88461119     1.10090
Cl133      Cl  0.37068784  0.68685583  0.88739553    -0.87420
C134        C  0.37009997  0.64503816  0.80845422     0.94910
C135        C  0.29738394  0.63689844  0.88387248     0.94710
N136        N  0.33240800  0.03817415  0.90230287    -0.07580
N137        N  0.31078560  0.03166357  0.90256783    -0.59700
N138        N  0.38302223  0.03075231  0.92881675    -0.07260
N139        N  0.39320227  0.01804927  0.94456644    -0.61830
N140        N  0.36968666  0.04611271  0.93852242    -0.06860
N141        N  0.37045202  0.04420173  0.96108421    -0.59670
N142        N  0.34540409  0.02235131  0.89286786    -0.06530
N143        N  0.33291041  0.00474127  0.88627459    -0.62180
C144        C  0.31134224  0.01077851  0.89248934     0.94600
C145        C  0.38533730  0.02673245  0.96469121     0.94380
N146        N  0.42867071  0.04683797  0.87595506    -0.07760
N147        N  0.45124424  0.04552835  0.87589264    -0.60280
N148        N  0.38167037  0.02332653  0.85429603    -0.05880
N149        N  0.37399632  0.00602679  0.84213854    -0.61530
N150        N  0.39037125  0.03908938  0.84080263    -0.07790
N151        N  0.38909683  0.03277226  0.81911252    -0.60540
N152        N  0.41991133  0.03127542  0.88968663    -0.05530
N153        N  0.43637086  0.01901185  0.89929968    -0.61620
Mn154      Mn  0.38271252  0.02627500  0.89152751     1.18440
C155        C  0.45586440  0.02817939  0.89061596     0.96680
C156        C  0.37858866  0.01218745  0.82021001     0.97340
N157        N  0.36283386  0.09789550  0.93342551    -0.07810
N158        N  0.36331062  0.10034709  0.95575355    -0.64120
N159        N  0.33399991  0.10846926  0.88522906    -0.06620
N160        N  0.31590604  0.12005874  0.87705245    -0.64800
N161        N  0.32642298  0.09119444  0.89774749    -0.07320
N162        N  0.30395377  0.09071357  0.89839185    -0.64390
N163        N  0.37295673  0.11503656  0.92267444    -0.06220
N164        N  0.38067802  0.12980092  0.93845063    -0.65080
Mn165      Mn  0.34759179  0.06848359  0.91797582     1.10660
C166        C  0.37423279  0.12012738  0.95902389     0.97900
C167        C  0.29715239  0.10851222  0.88549518     0.97980
N168        N  0.38530501  0.09164873  0.83504632    -0.07330
N169        N  0.38455230  0.09124498  0.81250681    -0.62700
N170        N  0.41280770  0.11535993  0.88057585    -0.06650
N171        N  0.42877934  0.13018911  0.88760138    -0.59430
N172        N  0.42312738  0.09871723  0.86917605    -0.07960
N173        N  0.44533097  0.10181034  0.86776837    -0.62270
N174        N  0.37346001  0.10901502  0.84357337    -0.06940
N175        N  0.36450000  0.12103172  0.82614673    -0.59450
Mn176      Mn  0.40688825  0.06912729  0.85499650     1.20190
Mn177      Mn  0.37323585  0.11367259  0.88300217     1.10090
Cl178      Cl  0.37757357  0.06963385  0.88686025    -0.87420
C179        C  0.37163239  0.10945753  0.80686728     0.94910
C180        C  0.44897073  0.12142463  0.87898256     0.94710
N181        N  0.38915873  0.83495779  0.04794059    -0.07580
N182        N  0.38901950  0.81282088  0.04343741    -0.59700
N183        N  0.41473599  0.88431305  0.03597761    -0.07260
N184        N  0.42912934  0.89512969  0.02256327    -0.61830
N185        N  0.42580694  0.87244603  0.05157177    -0.06860
N186        N  0.44822814  0.87466610  0.04881143    -0.59670
N187        N  0.37835304  0.84656753  0.03191767    -0.06530
N188        N  0.37050245  0.83253191  0.01602267    -0.62180
C189        C  0.37706266  0.81158222  0.02371734     0.94600
C190        C  0.44999277  0.88917160  0.03067026     0.94380
N191        N  0.36535430  0.93236088  0.05077593    -0.07760
N192        N  0.36765297  0.95483251  0.04879120    -0.60280
N193        N  0.34040628  0.88440106  0.03138548    -0.05880
N194        N  0.32696493  0.87658208  0.01507213    -0.61530
N195        N  0.32829934  0.89496972  0.04717978    -0.07790
N196        N  0.30630521  0.89457204  0.04214754    -0.60540
N197        N  0.37755960  0.92171428  0.03511545    -0.05530
N198        N  0.38860992  0.93664533  0.02220069    -0.61620
Mn199      Mn  0.37772270  0.88418390  0.03286327     1.18440
C200        C  0.38251593  0.95725589  0.03107335     0.96680
C201        C  0.30578965  0.88293068  0.02218159     0.97340
N202        N  0.42273357  0.86860103  0.10430101    -0.07810
N203        N  0.44506097  0.86872814  0.10667120    -0.64120
N204        N  0.37417442  0.84076268  0.11725981    -0.06620
N205        N  0.36542118  0.82321200  0.12923543    -0.64800
N206        N  0.38679229  0.83229980  0.10045444    -0.07320
N207        N  0.38693698  0.80980580  0.10054874    -0.64390
N208        N  0.41223328  0.87952328  0.12115496    -0.06220
N209        N  0.42812764  0.88771817  0.13544496    -0.65080
Mn210      Mn  0.40634118  0.85191198  0.07618814     1.10660
C211        C  0.44849705  0.88044113  0.12602469     0.97900
C212        C  0.37368210  0.80388916  0.11837493     0.97980
N213        N  0.32480384  0.89356329  0.09952580    -0.07330
N214        N  0.30233915  0.89352673  0.09926209    -0.62700
N215        N  0.37163381  0.91998460  0.12042561    -0.06650
N216        N  0.38011978  0.93633884  0.13405782    -0.59430
N217        N  0.36078928  0.92999727  0.10325304    -0.07960
N218        N  0.36133844  0.95242440  0.10470550    -0.62270
N219        N  0.33309620  0.88139892  0.11673097    -0.06940
N220        N  0.31543514  0.87277373  0.12863364    -0.59450
Mn221      Mn  0.34463373  0.91286433  0.07529307     1.20190
Mn222      Mn  0.37264990  0.88032804  0.12066052     1.10090
Cl223      Cl  0.37530436  0.88227786  0.07650069    -0.87420
C224        C  0.29623371  0.88062547  0.11729145     0.94910
C225        C  0.37322519  0.95647777  0.12381357     0.94710
N226        N  0.53649257  0.89616498  0.83824037    -0.07580
N227        N  0.53092234  0.89576767  0.81629069    -0.59700
N228        N  0.52591455  0.92474748  0.88742061    -0.07260
N229        N  0.51382565  0.94082448  0.89787671    -0.61830
N230        N  0.54192306  0.93397802  0.87464453    -0.06860
N231        N  0.54107050  0.95659847  0.87591979    -0.59670
N232        N  0.52032603  0.88696860  0.85080566    -0.06530
N233        N  0.50350542  0.87971577  0.83786131    -0.62180
C234        C  0.51021810  0.88543808  0.81645837     0.94600
C235        C  0.52367774  0.96062627  0.89079368     0.94380
N236        N  0.53739239  0.87414191  0.93606910    -0.07760
N237        N  0.53359963  0.87554517  0.95843463    -0.60280
N238        N  0.51747527  0.85040272  0.88837424    -0.05880
N239        N  0.49971099  0.83844356  0.88152570    -0.61530
N240        N  0.53228501  0.83714561  0.89894505    -0.07790
N241        N  0.52488401  0.81578480  0.89976501    -0.60540
N242        N  0.52317844  0.88748506  0.92488585    -0.05530
N243        N  0.50951792  0.89829017  0.93914618    -0.61620
Mn244      Mn  0.52128480  0.88752766  0.88789664     1.18440
C245        C  0.51615905  0.89095753  0.96004982     0.96680
C246        C  0.50456353  0.81692957  0.88872891     0.97340
N247        N  0.59349985  0.92807046  0.87140720    -0.07810
N248        N  0.59503898  0.95039741  0.87153305    -0.64120
N249        N  0.60582045  0.87909498  0.84528428    -0.06620
N250        N  0.61824063  0.87011488  0.82810204    -0.64800
N251        N  0.58910671  0.89141838  0.83619801    -0.07320
N252        N  0.58978585  0.89130140  0.81370531    -0.64390
N253        N  0.60969707  0.91813249  0.88372091    -0.06220
N254        N  0.62278061  0.93472541  0.89275360    -0.65080
Mn255      Mn  0.56536583  0.91237023  0.85481063     1.10660
C256        C  0.61305911  0.95482118  0.88472006     0.97900
C257        C  0.60782116  0.87807043  0.80841077     0.97980
N258        N  0.58520900  0.83125716  0.89787449    -0.07330
N259        N  0.58450615  0.80875483  0.89803308    -0.62700
N260        N  0.60764283  0.87670872  0.92514278    -0.06650
N261        N  0.62223977  0.88146554  0.94227533    -0.59430
N262        N  0.58922969  0.86734411  0.93427392    -0.07960
N263        N  0.59059409  0.86581876  0.95658939    -0.62270
N264        N  0.60316955  0.83891468  0.88642878    -0.06940
N265        N  0.61500219  0.82084183  0.87850010    -0.59450
Mn266      Mn  0.56113948  0.85224151  0.91681048     1.20190
Mn267      Mn  0.60858580  0.87820675  0.88518506     1.10090
Cl268      Cl  0.56469310  0.88247142  0.88614954    -0.87420
C269        C  0.60283543  0.80202786  0.88589491     0.94910
C270        C  0.61104446  0.87423325  0.96190690     0.94710
N271        N  0.87071136  0.33903054  0.65013865    -0.07580
N272        N  0.87802945  0.32222160  0.63638036    -0.59700
N273        N  0.82389142  0.36691163  0.66782122    -0.07260
N274        N  0.80151178  0.36715673  0.66739889    -0.61830
N275        N  0.83284008  0.37787918  0.65015618    -0.06860
N276        N  0.81568553  0.38582963  0.63708452    -0.59670
N277        N  0.85946650  0.32983464  0.66752971    -0.06530
N278        N  0.85865426  0.30736944  0.66597725    -0.62180
C279        C  0.87023310  0.30254799  0.64667303     0.94600
C280        C  0.79619065  0.37888494  0.64842747     0.94380
N281        N  0.83632889  0.38096579  0.73517787    -0.07760
N282        N  0.82300297  0.38991479  0.75101979    -0.60280
N283        N  0.86090099  0.33110645  0.72087444    -0.05880
N284        N  0.85916867  0.30954525  0.72769061    -0.61530
N285        N  0.87267971  0.34306340  0.73574393    -0.07790
N286        N  0.87956934  0.33003141  0.75280833    -0.60540
N287        N  0.82434476  0.36896629  0.72053729    -0.05530
N288        N  0.80241655  0.36932519  0.72628003    -0.61620
Mn289      Mn  0.84203704  0.34895331  0.69399651     1.18440
C290        C  0.80179861  0.38274136  0.74527072     0.96680
C291        C  0.87120038  0.30919937  0.74751205     0.97340
N292        N  0.87393749  0.41770010  0.64871697    -0.07810
N293        N  0.86483502  0.43429563  0.63569837    -0.64120
N294        N  0.92185328  0.38993546  0.66547647    -0.06620
N295        N  0.94427522  0.38880341  0.66416174    -0.64800
N296        N  0.91191169  0.37849431  0.64870965    -0.07320
N297        N  0.92824767  0.36922335  0.63544214    -0.64390
N298        N  0.88601210  0.42726950  0.66524242    -0.06220
N299        N  0.88546471  0.44974056  0.66401066    -0.65080
Mn300      Mn  0.87233706  0.37830945  0.64768136     1.10660
C301        C  0.87237384  0.45416122  0.64570129     0.97900
C302        C  0.94834579  0.37599425  0.64554707     0.97980
N303        N  0.91020709  0.37897641  0.73399625    -0.07330
N304        N  0.92320883  0.37140098  0.75066629    -0.62700
N305        N  0.88607001  0.42838779  0.71829289    -0.06650
N306        N  0.88742856  0.45042143  0.72334371    -0.59430
N307        N  0.87434366  0.41744489  0.73407721    -0.07960
N308        N  0.86728549  0.43168532  0.75015699    -0.62270
N309        N  0.92231688  0.39026997  0.71878312    -0.06940
N310        N  0.94404169  0.39110955  0.72519680    -0.59450
Mn311      Mn  0.87335801  0.38017083  0.73499925     1.20190
Mn312      Mn  0.90434271  0.40917610  0.69169091     1.10090
Cl313      Cl  0.87301825  0.37915413  0.69181411    -0.87420
C314        C  0.94427373  0.37890437  0.74505243     0.94910
C315        C  0.87544404  0.45219727  0.74318807     0.94710
N316        N  0.91709801  0.21716817  0.89943806    -0.07580
N317        N  0.93850645  0.22445070  0.89994914    -0.59700
N318        N  0.86793497  0.22651596  0.92763232    -0.07260
N319        N  0.86039747  0.24186064  0.94236373    -0.61830
N320        N  0.88147880  0.21168268  0.93770125    -0.06860
N321        N  0.88379743  0.21682716  0.95966006    -0.59670
N322        N  0.90378380  0.23250386  0.88973945    -0.06530
N323        N  0.91566044  0.25045803  0.88318380    -0.62180
C324        C  0.93733451  0.24516271  0.88939441     0.94600
C325        C  0.87001031  0.23539737  0.96237783     0.94380
N326        N  0.81934448  0.21093333  0.87832716    -0.07760
N327        N  0.79704764  0.21514206  0.87928198    -0.60280
N328        N  0.86582152  0.23230465  0.85360334    -0.05880
N329        N  0.87328266  0.24941352  0.84090937    -0.61530
N330        N  0.85598985  0.21676880  0.84080958    -0.07790
N331        N  0.85649400  0.22279747  0.81898313    -0.60540
N332        N  0.83035055  0.22458763  0.89221848    -0.05530
N333        N  0.81606825  0.23756548  0.90367307    -0.61620
Mn334      Mn  0.86682484  0.22923986  0.89073188     1.18440
C335        C  0.79542516  0.23202241  0.89523492     0.96680
C336        C  0.86765584  0.24304272  0.81937426     0.97340
N337        N  0.88540512  0.15922618  0.93320608    -0.07810
N338        N  0.88470377  0.15767127  0.95560422    -0.64120
N339        N  0.91262304  0.14647967  0.88492507    -0.06620
N340        N  0.93039074  0.13339166  0.87832943    -0.64800
N341        N  0.92079959  0.16416657  0.89638097    -0.07320
N342        N  0.94318652  0.16364842  0.89762847    -0.64390
N343        N  0.87429930  0.14226365  0.92319402    -0.06220
N344        N  0.86563945  0.12865291  0.93957642    -0.65080
Mn345      Mn  0.90144020  0.18784511  0.91666616     1.10660
C346        C  0.87245854  0.13881737  0.95969517     0.97900
C347        C  0.94941789  0.14454561  0.88666542     0.97980
N348        N  0.85894340  0.16447126  0.83615072    -0.07330
N349        N  0.85777856  0.16475141  0.81372107    -0.62700
N350        N  0.83328864  0.14170915  0.88253335    -0.06650
N351        N  0.81727928  0.12683119  0.88950225    -0.59430
N352        N  0.82291663  0.15887739  0.87195958    -0.07960
N353        N  0.80066007  0.15616875  0.87110298    -0.62270
N354        N  0.87113961  0.14695836  0.84383331    -0.06940
N355        N  0.87839499  0.13483524  0.82565061    -0.59450
Mn356      Mn  0.83917783  0.18773802  0.85656365     1.20190
Mn357      Mn  0.87300381  0.14238106  0.88352922     1.10090
Cl358      Cl  0.87030517  0.18612247  0.88672497    -0.87420
C359        C  0.86975225  0.14645396  0.80688132     0.94910
C360        C  0.79704611  0.13625553  0.88180505     0.94710
N361        N  0.71240701  0.36141816  0.84059842    -0.07580
N362        N  0.71810171  0.36350970  0.81873634    -0.59700
N363        N  0.71934719  0.33546121  0.89215837    -0.07260
N364        N  0.73120217  0.32094598  0.90449274    -0.61830
N365        N  0.70558494  0.32462945  0.87821150    -0.06860
N366        N  0.70853131  0.30215533  0.88016440    -0.59670
N367        N  0.72782311  0.37097679  0.85370564    -0.06530
N368        N  0.74431937  0.37988660  0.84119503    -0.62180
C369        C  0.73804294  0.37532411  0.81940906     0.94600
C370        C  0.72469373  0.30016592  0.89679471     0.94380
N371        N  0.70700222  0.38714345  0.93775162    -0.07760
N372        N  0.71148193  0.38896880  0.95988031    -0.60280
N373        N  0.72771798  0.40892530  0.88969110    -0.05880
N374        N  0.74507500  0.42073071  0.88170112    -0.61530
N375        N  0.71252892  0.42252048  0.89926485    -0.07790
N376        N  0.71947236  0.44407944  0.89831268    -0.60540
N377        N  0.72177795  0.37336651  0.92786510    -0.05530
N378        N  0.73648415  0.36521072  0.94294160    -0.61620
Mn379      Mn  0.72461212  0.37195032  0.89083323     1.18440
C380        C  0.72962352  0.37471785  0.96293030     0.96680
C381        C  0.73978123  0.44267013  0.88701415     0.97340
N382        N  0.65398494  0.32875810  0.87139403    -0.07810
N383        N  0.65127278  0.30648256  0.87060537    -0.64120
N384        N  0.64254593  0.37767969  0.84438494    -0.06620
N385        N  0.63094666  0.38697869  0.82687166    -0.64800
N386        N  0.65970291  0.36543759  0.83595453    -0.07320
N387        N  0.66027419  0.36614831  0.81344415    -0.64390
N388        N  0.63720637  0.33910749  0.88253893    -0.06220
N389        N  0.62254818  0.32310920  0.88993791    -0.65080
Mn390      Mn  0.68287741  0.34485522  0.85610846     1.10660
C391        C  0.63174408  0.30288762  0.88192493     0.97900
C392        C  0.64259367  0.37969034  0.80767754     0.97980
N393        N  0.65930250  0.42657275  0.89669765    -0.07330
N394        N  0.65856716  0.44905612  0.89721770    -0.62700
N395        N  0.63795101  0.37962980  0.92357617    -0.06650
N396        N  0.62459721  0.37051424  0.93991752    -0.59430
N397        N  0.65470450  0.39096515  0.93362721    -0.07960
N398        N  0.65329479  0.38991982  0.95603710    -0.62270
N399        N  0.64199691  0.41794456  0.88508849    -0.06940
N400        N  0.62904025  0.43528005  0.87741018    -0.59450
Mn401      Mn  0.68313766  0.40716820  0.91687484     1.20190
Mn402      Mn  0.63812824  0.37865679  0.88389779     1.10090
Cl403      Cl  0.68190215  0.37577257  0.88685632    -0.87420
C404        C  0.63980361  0.45466490  0.88522392     0.94910
C405        C  0.63473796  0.37720389  0.96009174     0.94710
N406        N  0.03513756  0.39517011  0.83986589    -0.07580
N407        N  0.02838513  0.39514689  0.81828694    -0.59700
N408        N  0.02820506  0.42312858  0.89011037    -0.07260
N409        N  0.01527280  0.43867470  0.90004643    -0.61830
N410        N  0.04250033  0.43271608  0.87570117    -0.06860
N411        N  0.03918553  0.45514971  0.87501188    -0.59670
N412        N  0.01941611  0.38636930  0.85327348    -0.06530
N413        N  0.00161828  0.37982750  0.84120723    -0.62180
C414        C  0.00742866  0.38548252  0.81948668     0.94600
C415        C  0.02215331  0.45857633  0.89044636     0.94380
N416        N  0.04161874  0.37250290  0.93721265    -0.07760
N417        N  0.03809002  0.37192819  0.95962255    -0.60280
N418        N  0.01864048  0.34960579  0.89067575    -0.05880
N419        N  0.00023358  0.33812295  0.88489194    -0.61530
N420        N  0.03386735  0.33599120  0.90011093    -0.07790
N421        N  0.02600192  0.31477843  0.90130780    -0.60540
N422        N  0.02691093  0.38630433  0.92730331    -0.05530
N423        N  0.01317110  0.39561098  0.94259522    -0.61620
Mn424      Mn  0.02286822  0.38650116  0.89038223     1.18440
C425        C  0.02050117  0.38683269  0.96277806     0.96680
C426        C  0.00495168  0.31648108  0.89166738     0.97340
N427        N  0.09354397  0.42744086  0.86929943    -0.07810
N428        N  0.09509057  0.44969440  0.86806645    -0.64120
N429        N  0.10518354  0.37876223  0.84290254    -0.06620
N430        N  0.11713432  0.37032465  0.82513441    -0.64800
N431        N  0.08759567  0.39045434  0.83469370    -0.07320
N432        N  0.08708758  0.39026187  0.81219895    -0.64390
N433        N  0.11073722  0.41807791  0.88058197    -0.06220
N434        N  0.12461905  0.43514682  0.88738265    -0.65080
Mn435      Mn  0.06484194  0.41134683  0.85459509     1.10660
C436        C  0.11419396  0.45492928  0.87923678     0.97900
C437        C  0.10536105  0.37775141  0.80602804     0.97980
N438        N  0.08690814  0.33080372  0.89577733    -0.07330
N439        N  0.08658040  0.30836741  0.89660650    -0.62700
N440        N  0.11034473  0.37671993  0.92243944    -0.06650
N441        N  0.12454533  0.38328250  0.93932525    -0.59430
N442        N  0.09290838  0.36598949  0.93196529    -0.07960
N443        N  0.09460404  0.36496423  0.95421092    -0.62270
N444        N  0.10473915  0.33853404  0.88418538    -0.06940
N445        N  0.11691639  0.32042169  0.87685538    -0.59450
Mn446      Mn  0.06403421  0.35103167  0.91614700     1.20190
Mn447      Mn  0.10977563  0.37803014  0.88254951     1.10090
Cl448      Cl  0.06567351  0.38159871  0.88583858    -0.87420
C449        C  0.10506101  0.30162786  0.88487365     0.94910
C450        C  0.11404518  0.37564936  0.95919706     0.94710
N451        N  0.88655217  0.33396738  0.04767761    -0.07580
N452        N  0.88584927  0.31193103  0.04280647    -0.59700
N453        N  0.91351422  0.38333184  0.03584669    -0.07260
N454        N  0.92827054  0.39244687  0.02141030    -0.61830
N455        N  0.92414294  0.37054008  0.05102087    -0.06860
N456        N  0.94644393  0.37045209  0.04715028    -0.59670
N457        N  0.87638351  0.34617862  0.03170917    -0.06530
N458        N  0.86857104  0.33267711  0.01535219    -0.62180
C459        C  0.87424288  0.31139681  0.02286882     0.94600
C460        C  0.94875640  0.38446103  0.02878654     0.94380
N461        N  0.86432512  0.43140606  0.05290638    -0.07760
N462        N  0.86498999  0.45388387  0.05013932    -0.60280
N463        N  0.83878535  0.38422899  0.03301776    -0.05880
N464        N  0.82478838  0.37640994  0.01710584    -0.61530
N465        N  0.82717021  0.39457089  0.04934173    -0.07790
N466        N  0.80505333  0.39430789  0.04494430    -0.60540
N467        N  0.87647061  0.42110003  0.03696949    -0.05530
N468        N  0.88598067  0.43629732  0.02317482    -0.61620
Mn469      Mn  0.87629426  0.38375203  0.03372485     1.18440
C470        C  0.87902734  0.45668252  0.03185046     0.96680
C471        C  0.80386499  0.38279657  0.02492549     0.97340
N472        N  0.92266791  0.36590056  0.10308279    -0.07810
N473        N  0.94505767  0.36592603  0.10362808    -0.64120
N474        N  0.87465512  0.33864678  0.11794137    -0.06620
N475        N  0.86624961  0.32113362  0.13021180    -0.64800
N476        N  0.88581507  0.33019630  0.10012382    -0.07320
N477        N  0.88520101  0.30769110  0.09965855    -0.64390
N478        N  0.91358612  0.37684797  0.12069366    -0.06220
N479        N  0.93073186  0.38467002  0.13382305    -0.65080
Mn480      Mn  0.90480946  0.34999445  0.07558194     1.10660
C481        C  0.95033357  0.37752836  0.12260050     0.97900
C482        C  0.87309626  0.30191962  0.11830814     0.97980
N483        N  0.82505171  0.39179726  0.10231421    -0.07330
N484        N  0.80253428  0.39130385  0.10274923    -0.62700
N485        N  0.87278678  0.41788881  0.12210734    -0.06650
N486        N  0.88138080  0.43414965  0.13581582    -0.59430
N487        N  0.86134400  0.42805864  0.10540273    -0.07960
N488        N  0.86168838  0.45044838  0.10720410    -0.62270
N489        N  0.83412836  0.37936705  0.11899862    -0.06940
N490        N  0.81708032  0.36991927  0.13113154    -0.59450
Mn491      Mn  0.84424683  0.41156945  0.07759937     1.20190
Mn492      Mn  0.87380406  0.37817024  0.12182262     1.10090
Cl493      Cl  0.87468659  0.38083516  0.07767073    -0.87420
C494        C  0.79748133  0.37778467  0.12064168     0.94910
C495        C  0.87404039  0.45437527  0.12602006     0.94710
N496        N  0.83090436  0.53821621  0.89683419    -0.07580
N497        N  0.80959401  0.53066007  0.89644157    -0.59700
N498        N  0.87997439  0.52948723  0.92538790    -0.07260
N499        N  0.88872759  0.51545387  0.94091779    -0.61830
N500        N  0.86628741  0.54447615  0.93513977    -0.06860
N501        N  0.86537227  0.54113384  0.95749567    -0.59670
N502        N  0.84470528  0.52337383  0.88704563    -0.06530
N503        N  0.83324151  0.50559590  0.87952171    -0.62180
C504        C  0.81136817  0.51024698  0.88540534     0.94600
C505        C  0.87968198  0.52318527  0.96089589     0.94380
N506        N  0.92814995  0.54842965  0.87594378    -0.07760
N507        N  0.95063956  0.54576664  0.87649458    -0.60280
N508        N  0.88240264  0.52587748  0.85036984    -0.05880
N509        N  0.87435852  0.50976399  0.83673607    -0.61530
N510        N  0.89199188  0.54224924  0.83827869    -0.07790
N511        N  0.89107959  0.53761174  0.81616027    -0.60540
N512        N  0.91812491  0.53304125  0.88889986    -0.05530
N513        N  0.93340305  0.51993814  0.89896007    -0.61620
Mn514      Mn  0.88152666  0.52735571  0.88793336     1.18440
C515        C  0.95365624  0.52798370  0.89117219     0.96680
C516        C  0.87972361  0.51748857  0.81548350     0.97340
N517        N  0.85974281  0.59621446  0.93249296    -0.07810
N518        N  0.85752249  0.59811636  0.95475419    -0.64120
N519        N  0.83321954  0.60946026  0.88409837    -0.06620
N520        N  0.81560886  0.62234537  0.87702580    -0.64800
N521        N  0.82504943  0.59140507  0.89502979    -0.07320
N522        N  0.80257234  0.59157450  0.89565256    -0.64390
N523        N  0.86979781  0.61426213  0.92330553    -0.06220
N524        N  0.87439630  0.62913644  0.94022162    -0.65080
Mn525      Mn  0.84529410  0.56770319  0.91477275     1.10660
C526        C  0.86625689  0.61857956  0.95981451     0.97900
C527        C  0.79651871  0.61075453  0.88441811     0.97980
N528        N  0.88720474  0.59505252  0.83510512    -0.07330
N529        N  0.88751330  0.59563395  0.81256256    -0.62700
N530        N  0.91209985  0.61648584  0.88273711    -0.06650
N531        N  0.92790499  0.63111909  0.89058914    -0.59430
N532        N  0.92280361  0.60018664  0.87119102    -0.07960
N533        N  0.94499700  0.60321912  0.87052242    -0.62270
N534        N  0.87403802  0.61133445  0.84386526    -0.06940
N535        N  0.86471121  0.62322263  0.82654817    -0.59450
Mn536      Mn  0.90762349  0.57154665  0.85487164     1.20190
Mn537      Mn  0.87229882  0.61464399  0.88353200     1.10090
Cl538      Cl  0.87660506  0.57059822  0.88524848    -0.87420
C539        C  0.87352663  0.61306360  0.80715195     0.94910
C540        C  0.94832245  0.62242226  0.88236928     0.94710
N541        N  0.83808401  0.87834059  0.23703074    -0.07580
N542        N  0.82562965  0.88690855  0.25363675    -0.59700
N543        N  0.86237363  0.82861005  0.22088036    -0.07260
N544        N  0.86363329  0.80638494  0.22540261    -0.61830
N545        N  0.87424606  0.84019931  0.23590413    -0.06860
N546        N  0.88395468  0.82638699  0.25085945    -0.59670
N547        N  0.82546886  0.86646096  0.22284613    -0.06530
N548        N  0.80392982  0.86619448  0.22994470    -0.62180
C549        C  0.80446540  0.87911695  0.24928809     0.94600
C550        C  0.87755221  0.80528932  0.24404607     0.94380
N551        N  0.86977571  0.83881841  0.15025856    -0.07760
N552        N  0.87565717  0.82203092  0.13570343    -0.60280
N553        N  0.82307559  0.86601141  0.16974475    -0.05880
N554        N  0.80059636  0.86570712  0.16896030    -0.61530
N555        N  0.83199037  0.87742658  0.15228755    -0.07790
N556        N  0.81487720  0.88522385  0.13913595    -0.60540
N557        N  0.85913204  0.82950025  0.16796041    -0.05530
N558        N  0.85760713  0.80720150  0.16603342    -0.61620
Mn559      Mn  0.84226511  0.84740610  0.19522497     1.18440
C560        C  0.86778779  0.80232127  0.14605105     0.96680
C561        C  0.79544164  0.87755884  0.14997345     0.97340
N562        N  0.91153641  0.87582393  0.23422694    -0.07810
N563        N  0.92506308  0.86719301  0.24991288    -0.64120
N564        N  0.88670109  0.92589704  0.22122237    -0.06620
N565        N  0.88748728  0.94786932  0.22654458    -0.64800
N566        N  0.87565092  0.91436422  0.23699386    -0.07320
N567        N  0.86846720  0.92811550  0.25342698    -0.64390
N568        N  0.92314459  0.88798568  0.21934962    -0.06220
N569        N  0.94505811  0.88852354  0.22513093    -0.65080
Mn570      Mn  0.87480426  0.87719083  0.23633693     1.10660
C571        C  0.94595535  0.87516231  0.24422936     0.97900
C572        C  0.87588453  0.94899556  0.24663393     0.97980
N573        N  0.87287780  0.91788661  0.15169362    -0.07330
N574        N  0.86404565  0.93520840  0.13940087    -0.62700
N575        N  0.92097272  0.89014803  0.16651758    -0.06650
N576        N  0.94317148  0.89168213  0.16400066    -0.59430
N577        N  0.91119606  0.87957905  0.14911976    -0.07960
N578        N  0.92764823  0.87368970  0.13413124    -0.62270
N579        N  0.88505818  0.92660570  0.16860701    -0.06940
N580        N  0.88477641  0.94906238  0.16840967    -0.59450
Mn581      Mn  0.87145910  0.87842220  0.14902752     1.20190
Mn582      Mn  0.90414106  0.90776247  0.19369129     1.10090
Cl583      Cl  0.87314406  0.87767856  0.19323410    -0.87420
C584        C  0.87161961  0.95453431  0.15048584     0.94910
C585        C  0.94758401  0.88155932  0.14394461     0.94710
N586        N  0.91602800  0.72051410  0.39816597    -0.07580
N587        N  0.93732280  0.72817518  0.39819977    -0.59700
N588        N  0.86663409  0.72986395  0.42556992    -0.07260
N589        N  0.85915879  0.74555719  0.44004214    -0.61830
N590        N  0.88006510  0.71513872  0.43607528    -0.06860
N591        N  0.88218443  0.72063898  0.45795055    -0.59670
N592        N  0.90249684  0.73524152  0.38785059    -0.06530
N593        N  0.91409376  0.75300913  0.38041820    -0.62180
C594        C  0.93578976  0.74851492  0.38688208     0.94600
C595        C  0.86852186  0.73931360  0.46030470     0.94380
N596        N  0.81937798  0.71080219  0.37599074    -0.07760
N597        N  0.79688323  0.71315829  0.37664254    -0.60280
N598        N  0.86555065  0.73266226  0.35065716    -0.05880
N599        N  0.87443730  0.74825435  0.33688151    -0.61530
N600        N  0.85632526  0.71612379  0.33866791    -0.07790
N601        N  0.85850421  0.72002361  0.31649194    -0.60540
N602        N  0.82917454  0.72627887  0.38889024    -0.05530
N603        N  0.81373979  0.73924528  0.39898732    -0.61620
Mn604      Mn  0.86573421  0.73150552  0.38821222     1.18440
C605        C  0.79366173  0.73084998  0.39130670     0.96680
C606        C  0.86985866  0.74012334  0.31560609     0.97340
N607        N  0.88606092  0.66242387  0.43357998    -0.07810
N608        N  0.88893032  0.65962400  0.45567797    -0.64120
N609        N  0.91330023  0.64924741  0.38511221    -0.06620
N610        N  0.93117892  0.63711836  0.37725438    -0.64800
N611        N  0.92114548  0.66711692  0.39651375    -0.07320
N612        N  0.94357138  0.66750593  0.39670393    -0.64390
N613        N  0.87662874  0.64427701  0.42397699    -0.06220
N614        N  0.87312410  0.62847650  0.44030576    -0.65080
Mn615      Mn  0.90096794  0.69109918  0.41612820     1.10660
C616        C  0.88123475  0.63852451  0.46001207     0.97900
C617        C  0.95002304  0.64913438  0.38455711     0.97980
N618        N  0.86039551  0.66365186  0.33597665    -0.07330
N619        N  0.86038726  0.66314812  0.31344486    -0.62700
N620        N  0.83429315  0.64269500  0.38386038    -0.06650
N621        N  0.81773870  0.62918920  0.39247887    -0.59430
N622        N  0.82433544  0.65929961  0.37211772    -0.07960
N623        N  0.80205588  0.65772652  0.37228509    -0.62270
N624        N  0.87264004  0.64676756  0.34487035    -0.06940
N625        N  0.88130691  0.63422019  0.32767554    -0.59450
Mn626      Mn  0.84007462  0.68738313  0.35541421     1.20190
Mn627      Mn  0.87421466  0.64393946  0.38448212     1.10090
Cl628      Cl  0.87033993  0.68819672  0.38609011    -0.87420
C629        C  0.87335033  0.64491070  0.30820530     0.94910
C630        C  0.79762141  0.63920221  0.38489289     0.94710
N631        N  0.71061039  0.86031385  0.34121438    -0.07580
N632        N  0.71637708  0.86178058  0.31928953    -0.59700
N633        N  0.71945712  0.83395563  0.39214452    -0.07260
N634        N  0.73248435  0.81858511  0.40230957    -0.61830
N635        N  0.70422150  0.82392833  0.37918011    -0.06860
N636        N  0.70656896  0.80142688  0.38011811    -0.59670
N637        N  0.72610197  0.87002038  0.35410357    -0.06530
N638        N  0.74250008  0.87873380  0.34151904    -0.62180
C639        C  0.73632594  0.87357984  0.31985932     0.94600
C640        C  0.72411042  0.79830369  0.39490506     0.94380
N641        N  0.70770146  0.88682226  0.43771595    -0.07760
N642        N  0.71342033  0.88996152  0.45942155    -0.60280
N643        N  0.72826790  0.90780246  0.38944740    -0.05880
N644        N  0.74609311  0.91936971  0.38203104    -0.61530
N645        N  0.71314066  0.92162942  0.39868646    -0.07790
N646        N  0.72047860  0.94304427  0.39815946    -0.60540
N647        N  0.72198248  0.87248203  0.42788012    -0.05530
N648        N  0.73756928  0.86535670  0.44252816    -0.61620
Mn649      Mn  0.72426064  0.87077360  0.39096232     1.18440
C650        C  0.73182747  0.87601952  0.46225772     0.96680
C651        C  0.74100413  0.94138790  0.38737702     0.97340
N652        N  0.65294814  0.82822024  0.37398598    -0.07810
N653        N  0.65032465  0.80593324  0.37336746    -0.64120
N654        N  0.64053621  0.87563775  0.34578028    -0.06620
N655        N  0.62739225  0.88227393  0.32815679    -0.64800
N656        N  0.65794589  0.86372018  0.33749728    -0.07320
N657        N  0.65713186  0.86202858  0.31508515    -0.64390
N658        N  0.63629037  0.83861692  0.38531674    -0.06220
N659        N  0.62176982  0.82253269  0.39292572    -0.65080
Mn660      Mn  0.68145021  0.84402651  0.35761966     1.10660
C661        C  0.63103350  0.80222289  0.38502896     0.97900
C662        C  0.63812857  0.87336263  0.30905234     0.97980
N663        N  0.65998766  0.92624882  0.39592546    -0.07330
N664        N  0.66004683  0.94874930  0.39529541    -0.62700
N665        N  0.63757184  0.88189030  0.42505230    -0.06650
N666        N  0.62259303  0.87780229  0.44206295    -0.59430
N667        N  0.65559072  0.89208319  0.43401717    -0.07960
N668        N  0.65358410  0.89477826  0.45615439    -0.62270
N669        N  0.64213652  0.91770541  0.38501271    -0.06940
N670        N  0.62960222  0.93511172  0.37676152    -0.59450
Mn671      Mn  0.68393313  0.90691198  0.41653424     1.20190
Mn672      Mn  0.63720029  0.87846206  0.38539300     1.10090
Cl673      Cl  0.68104226  0.87513660  0.38762250    -0.87420
C674        C  0.64123486  0.95443360  0.38338523     0.94910
C675        C  0.63312663  0.88630772  0.46142622     0.94710
N676        N  0.03617770  0.89824457  0.33898503    -0.07580
N677        N  0.02979001  0.89786696  0.31720638    -0.59700
N678        N  0.02642046  0.92334082  0.38947008    -0.07260
N679        N  0.01319930  0.93753735  0.40092528    -0.61830
N680        N  0.04163165  0.93454220  0.37735790    -0.06860
N681        N  0.03897650  0.95695826  0.38032958    -0.59670
N682        N  0.02124626  0.88742655  0.35178345    -0.06530
N683        N  0.00464488  0.87911453  0.33929676    -0.62180
C684        C  0.00993318  0.88586938  0.31786236     0.94600
C685        C  0.02123951  0.95846933  0.39546941     0.94380
N686        N  0.04103041  0.87146746  0.43551417    -0.07760
N687        N  0.03671707  0.87053562  0.45778290    -0.60280
N688        N  0.02025913  0.84945332  0.38759000    -0.05880
N689        N  0.00272577  0.83764883  0.38004491    -0.61530
N690        N  0.03530136  0.83587403  0.39731375    -0.07790
N691        N  0.02817400  0.81438101  0.39690384    -0.60540
N692        N  0.02676417  0.88555279  0.42533694    -0.05530
N693        N  0.01282398  0.89501196  0.44026288    -0.61620
Mn694      Mn  0.02332047  0.88650321  0.38854184     1.18440
C695        C  0.01908828  0.88549688  0.46039551     0.96680
C696        C  0.00785160  0.81574509  0.38577574     0.97340
N697        N  0.09414874  0.93011855  0.37182650    -0.07810
N698        N  0.09718915  0.95238174  0.37160401    -0.64120
N699        N  0.10581967  0.88191176  0.34294121    -0.06620
N700        N  0.11746234  0.87361471  0.32487958    -0.64800
N701        N  0.08896115  0.89490821  0.33511931    -0.07320
N702        N  0.08877796  0.89571579  0.31264930    -0.64390
N703        N  0.11101557  0.91916639  0.38228944    -0.06220
N704        N  0.12602731  0.93474299  0.38977555    -0.65080
Mn705      Mn  0.06537850  0.91471984  0.35552475     1.10660
C706        C  0.11696049  0.95535469  0.38261177     0.97900
C707        C  0.10627737  0.88244721  0.30598078     0.97980
N708        N  0.08810420  0.83134801  0.39460611    -0.07330
N709        N  0.08863572  0.80886312  0.39546640    -0.62700
N710        N  0.11008727  0.87719423  0.42234748    -0.06650
N711        N  0.12367187  0.88476186  0.43925551    -0.59430
N712        N  0.09287428  0.86598493  0.43177268    -0.07960
N713        N  0.09416161  0.86554317  0.45414136    -0.62270
N714        N  0.10566235  0.83981234  0.38310610    -0.06940
N715        N  0.11860165  0.82224121  0.37582393    -0.59450
Mn716      Mn  0.06449779  0.85088731  0.41478421     1.20190
Mn717      Mn  0.10998622  0.87942289  0.38256488     1.10090
Cl718      Cl  0.06612650  0.88282969  0.38526324    -0.87420
C719        C  0.10763151  0.80302113  0.38402228     0.94910
C720        C  0.11315484  0.87714314  0.45905182     0.94710
N721        N  0.83119479  0.03848505  0.39822732    -0.07580
N722        N  0.80996556  0.03059834  0.39812883    -0.59700
N723        N  0.87982299  0.03046862  0.42783985    -0.07260
N724        N  0.88840502  0.01710864  0.44402139    -0.61830
N725        N  0.86596342  0.04581534  0.43680304    -0.06860
N726        N  0.86475408  0.04335027  0.45926218    -0.59670
N727        N  0.84520158  0.02334394  0.38915779    -0.06530
N728        N  0.83398516  0.00515777  0.38232105    -0.62180
C729        C  0.81209065  0.00970288  0.38803687     0.94600
C730        C  0.87896836  0.02551454  0.46353215     0.94380
N731        N  0.92939115  0.04611344  0.37871251    -0.07760
N732        N  0.95186116  0.04437897  0.38118885    -0.60280
N733        N  0.88340694  0.02359563  0.35328382    -0.05880
N734        N  0.87473784  0.00742523  0.34014059    -0.61530
N735        N  0.89332300  0.03937242  0.34072815    -0.07790
N736        N  0.89193049  0.03431428  0.31875399    -0.60540
N737        N  0.91895417  0.03107596  0.39175708    -0.05530
N738        N  0.93390194  0.01892608  0.40351476    -0.61620
Mn739      Mn  0.88205939  0.02664567  0.39059435     1.18440
C740        C  0.95443854  0.02743515  0.39697242     0.96680
C741        C  0.88001300  0.01450374  0.31864482     0.97340
N742        N  0.86037545  0.09777613  0.43212370    -0.07810
N743        N  0.86022196  0.09972456  0.45452199    -0.64120
N744        N  0.83478626  0.10934903  0.38276517    -0.06620
N745        N  0.81754545  0.12200021  0.37435501    -0.64800
N746        N  0.82598920  0.09211536  0.39458224    -0.07320
N747        N  0.80347835  0.09278438  0.39484040    -0.64390
N748        N  0.87195631  0.11449169  0.42217180    -0.06220
N749        N  0.88014712  0.12828691  0.43855503    -0.65080
Mn750      Mn  0.84552773  0.06864563  0.41535302     1.10660
C751        C  0.87236555  0.11863541  0.45864755     0.97900
C752        C  0.79814592  0.11131956  0.38230648     0.97980
N753        N  0.88917581  0.09195407  0.33538120    -0.07330
N754        N  0.88909677  0.09126278  0.31285250    -0.62700
N755        N  0.91406609  0.11497888  0.38225807    -0.06650
N756        N  0.92987549  0.12982830  0.38966671    -0.59430
N757        N  0.92476839  0.09796805  0.37178467    -0.07960
N758        N  0.94702351  0.10068713  0.37148516    -0.62270
N759        N  0.87645535  0.10900083  0.34329122    -0.06940
N760        N  0.86742713  0.12030792  0.32544056    -0.59450
Mn761      Mn  0.90928925  0.06887571  0.35637724     1.20190
Mn762      Mn  0.87429058  0.11376583  0.38259681     1.10090
Cl763      Cl  0.87767685  0.07002817  0.38617393    -0.87420
C764        C  0.87539346  0.10866469  0.30652290     0.94910
C765        C  0.95033696  0.12046365  0.38239911     0.94710
N766        N  0.89036618  0.83658148  0.54712693    -0.07580
N767        N  0.88980272  0.81462143  0.54176525    -0.59700
N768        N  0.91600384  0.88713258  0.53771703    -0.07260
N769        N  0.93061899  0.89686898  0.52364825    -0.61830
N770        N  0.92679674  0.87410076  0.55256209    -0.06860
N771        N  0.94909932  0.87434233  0.54862315    -0.59670
N772        N  0.88006305  0.84903724  0.53141844    -0.06530
N773        N  0.87222467  0.83582818  0.51484077    -0.62180
C774        C  0.87817072  0.81444879  0.52179801     0.94600
C775        C  0.95124322  0.88889054  0.53062904     0.94380
N776        N  0.86513229  0.93326757  0.55415710    -0.07760
N777        N  0.86531582  0.95582671  0.55204488    -0.60280
N778        N  0.84161137  0.88607208  0.53257834    -0.05880
N779        N  0.82838307  0.87855162  0.51593141    -0.61530
N780        N  0.82918490  0.89512071  0.54906003    -0.07790
N781        N  0.80718118  0.89387935  0.54420575    -0.60540
N782        N  0.87800420  0.92371974  0.53833601    -0.05530
N783        N  0.88751832  0.93950625  0.52523090    -0.61620
Mn784      Mn  0.87897626  0.88653912  0.53431761     1.18440
C785        C  0.87974794  0.95946763  0.53421365     0.96680
C786        C  0.80699854  0.88320840  0.52367796     0.97340
N787        N  0.92418298  0.86785019  0.60467716    -0.07810
N788        N  0.94653444  0.86785560  0.60667095    -0.64120
N789        N  0.87658398  0.83903021  0.61727791    -0.06620
N790        N  0.86965902  0.82076731  0.62944740    -0.64800
N791        N  0.88853854  0.83152201  0.59957213    -0.07320
N792        N  0.88990634  0.80907896  0.59921456    -0.64390
N793        N  0.91398041  0.87813147  0.62209165    -0.06220
N794        N  0.93014977  0.88568267  0.63646656    -0.65080
Mn795      Mn  0.90753199  0.85237356  0.57606848     1.10660
C796        C  0.95036464  0.87875813  0.62640812     0.97900
C797        C  0.87830738  0.80208609  0.61769871     0.97980
N798        N  0.82598336  0.89191011  0.60169434    -0.07330
N799        N  0.80351899  0.89250484  0.60244843    -0.62700
N800        N  0.87247205  0.91830729  0.62299957    -0.06650
N801        N  0.88034233  0.93444505  0.63725054    -0.59430
N802        N  0.86095739  0.92858865  0.60641711    -0.07960
N803        N  0.86029739  0.95090515  0.60896310    -0.62270
N804        N  0.83476577  0.87938947  0.61843248    -0.06940
N805        N  0.81747647  0.87093510  0.63093569    -0.59450
Mn806      Mn  0.84513551  0.91225912  0.57791953     1.20190
Mn807      Mn  0.87435328  0.87859768  0.62195993     1.10090
Cl808      Cl  0.87643462  0.88237470  0.57784018    -0.87420
C809        C  0.79806584  0.87945120  0.62052794     0.94910
C810        C  0.87213021  0.95464692  0.62812826     0.94710
N811        N  0.12580117  0.09121726  0.48222907    -0.07580
N812        N  0.11775098  0.07644235  0.49738013    -0.59700
N813        N  0.17355351  0.11917354  0.46708808    -0.07260
N814        N  0.19552465  0.12042659  0.47266742    -0.61830
N815        N  0.16098661  0.13016545  0.48216776    -0.06860
N816        N  0.17387502  0.13950757  0.49788623    -0.59670
N817        N  0.13797532  0.08057163  0.46653915    -0.06530
N818        N  0.13863516  0.05830594  0.47061580    -0.62180
C819        C  0.12583872  0.05600144  0.48982690     0.94600
C820        C  0.19532738  0.13335465  0.49206270     0.94380
N821        N  0.16400032  0.12960213  0.39659662    -0.07760
N822        N  0.18068577  0.13844398  0.38348602    -0.60280
N823        N  0.13888505  0.08095922  0.41388853    -0.05880
N824        N  0.13943930  0.05849491  0.41331851    -0.61530
N825        N  0.12698381  0.08972753  0.39670640    -0.07790
N826        N  0.11920575  0.07237612  0.38385288    -0.60540
N827        N  0.17359902  0.11852576  0.41389674    -0.05530
N828        N  0.19598762  0.11940976  0.41308458    -0.61620
Mn829      Mn  0.15623566  0.09969793  0.44014421     1.18440
C830        C  0.20054875  0.13184189  0.39437405     0.96680
C831        C  0.12734642  0.05300072  0.39471886     0.97340
N832        N  0.12259526  0.16615147  0.48287558    -0.07810
N833        N  0.13106668  0.18047339  0.49811005    -0.64120
N834        N  0.07501400  0.13901611  0.46697537    -0.06620
N835        N  0.05285338  0.13769380  0.47157022    -0.64800
N836        N  0.08689725  0.12759063  0.48227949    -0.07320
N837        N  0.07326011  0.11808543  0.49748237    -0.64390
N838        N  0.11109667  0.17735682  0.46711376    -0.06220
N839        N  0.11129147  0.19961467  0.47127466    -0.65080
Mn840      Mn  0.12402402  0.12871210  0.48287068     1.10660
C841        C  0.12388701  0.20130050  0.49065306     0.97900
C842        C  0.05200154  0.12431809  0.49060503     0.97980
N843        N  0.08454111  0.12949478  0.39676802    -0.07330
N844        N  0.06762942  0.12130439  0.38360275    -0.62700
N845        N  0.11039753  0.17770469  0.41424086    -0.06650
N846        N  0.10928071  0.20010368  0.41333345    -0.59430
N847        N  0.12180104  0.16912231  0.39666107    -0.07960
N848        N  0.12860671  0.18660785  0.38328963    -0.62270
N849        N  0.07517100  0.14049986  0.41423307    -0.06940
N850        N  0.05275773  0.14010722  0.41356285    -0.59450
Mn851      Mn  0.12431982  0.12944122  0.39481881     1.20190
Mn852      Mn  0.09281934  0.15877618  0.44046177     1.10090
Cl853      Cl  0.12433502  0.12913441  0.43928972    -0.87420
C854        C  0.04790042  0.12819163  0.39467851     0.94910
C855        C  0.12040357  0.20598094  0.39419565     0.94710
N856        N  0.61942593  0.09194006  0.28283078    -0.07580
N857        N  0.62773079  0.07742800  0.26753122    -0.59700
N858        N  0.57197027  0.11918211  0.30021745    -0.07260
N859        N  0.54981203  0.12030834  0.29528621    -0.61830
N860        N  0.58383362  0.13097218  0.28522533    -0.06860
N861        N  0.57030744  0.14075113  0.27021566    -0.59670
N862        N  0.60819757  0.08084725  0.29887113    -0.06530
N863        N  0.60845858  0.05859338  0.29496245    -0.62180
C864        C  0.62071228  0.05671437  0.27538902     0.94600
C865        C  0.54907765  0.13416243  0.27650588     0.94380
N866        N  0.58411734  0.12808708  0.37013753    -0.07760
N867        N  0.56782460  0.13672590  0.38391898    -0.60280
N868        N  0.60901113  0.07963297  0.35170347    -0.05880
N869        N  0.60867741  0.05711951  0.35285581    -0.61530
N870        N  0.62171584  0.08859950  0.36808864    -0.07790
N871        N  0.63059534  0.07159380  0.38066946    -0.60540
N872        N  0.57397352  0.11724324  0.35310052    -0.05530
N873        N  0.55161646  0.11809677  0.35467844    -0.61620
Mn874      Mn  0.59056046  0.09902769  0.32608747     1.18440
C875        C  0.54765583  0.13007096  0.37376944     0.96680
C876        C  0.62210271  0.05204864  0.37081033     0.97340
N877        N  0.62188857  0.16701074  0.28408390    -0.07810
N878        N  0.61334982  0.18174593  0.26916414    -0.64120
N879        N  0.67043992  0.13924064  0.29662215    -0.06620
N880        N  0.69225949  0.13816177  0.29048346    -0.64800
N881        N  0.65769476  0.12846101  0.28168030    -0.07320
N882        N  0.67035948  0.11971382  0.26522698    -0.64390
N883        N  0.63434600  0.17767859  0.29939258    -0.06220
N884        N  0.63475259  0.19993338  0.29518192    -0.65080
Mn885      Mn  0.62069247  0.12955607  0.28303574     1.10660
C886        C  0.62109100  0.20224759  0.27661273     0.97900
C887        C  0.69190582  0.12565506  0.27084787     0.97980
N888        N  0.66361937  0.12736103  0.36706301    -0.07330
N889        N  0.68071575  0.11768838  0.37905379    -0.62700
N890        N  0.63759717  0.17664910  0.35218291    -0.06650
N891        N  0.63794807  0.19911764  0.35372954    -0.59430
N892        N  0.62603826  0.16722124  0.36924147    -0.07960
N893        N  0.61800057  0.18391300  0.38279862    -0.62270
N894        N  0.67264442  0.13874424  0.34966635    -0.06940
N895        N  0.69505449  0.13717499  0.34932005    -0.59450
Mn896      Mn  0.62392825  0.12783032  0.37046638     1.20190
Mn897      Mn  0.65399843  0.15825644  0.32461511     1.10090
Cl898      Cl  0.62233857  0.12864012  0.32659059    -0.87420
C899        C  0.70024963  0.12396239  0.36737731     0.94910
C900        C  0.62592947  0.20366985  0.37276888     0.94710
N901        N  0.11881866  0.86070985  0.09300845    -0.07580
N902        N  0.12540706  0.87426365  0.07569690    -0.59700
N903        N  0.07223159  0.84444088  0.12188790    -0.07260
N904        N  0.04997812  0.84636501  0.12048479    -0.61830
N905        N  0.08163876  0.86232749  0.13194388    -0.06860
N906        N  0.06481653  0.87709953  0.13747314    -0.59670
N907        N  0.10718297  0.84335072  0.08445960    -0.06530
N908        N  0.10565776  0.84461784  0.06204607    -0.62180
C909        C  0.11695535  0.86378635  0.05638975     0.94600
C910        C  0.04505290  0.86656848  0.13004995     0.94380
N911        N  0.08333198  0.77677549  0.13616036    -0.07760
N912        N  0.06981899  0.76217168  0.14658647    -0.60280
N913        N  0.10726290  0.79056834  0.08583735    -0.05880
N914        N  0.10720784  0.78625939  0.06364223    -0.61530
N915        N  0.11869244  0.77474738  0.09701875    -0.07790
N916        N  0.12683775  0.75922018  0.08271976    -0.60540
N917        N  0.07135646  0.79187857  0.12459433    -0.05530
N918        N  0.04917103  0.78759760  0.12659597    -0.61620
Mn919      Mn  0.08942613  0.81761493  0.10409720     1.18440
C920        C  0.04848456  0.76903603  0.14068669     0.96680
C921        C  0.11954390  0.76667575  0.06195307     0.97340
N922        N  0.12403681  0.86205521  0.17192221    -0.07810
N923        N  0.11700505  0.87596411  0.18880939    -0.64120
N924        N  0.17071500  0.84349033  0.14330816    -0.06620
N925        N  0.19314445  0.84468364  0.14326498    -0.64800
N926        N  0.16122814  0.86085338  0.13219049    -0.07320
N927        N  0.17802659  0.87431650  0.12420959    -0.64390
N928        N  0.13578196  0.84495195  0.18113669    -0.06220
N929        N  0.13705274  0.84678074  0.20354101    -0.65080
Mn930      Mn  0.12145028  0.86331497  0.13232018     1.10660
C931        C  0.12564812  0.86612415  0.20847005     0.97900
C932        C  0.19792182  0.86375694  0.13139942     0.97980
N933        N  0.15736327  0.77499190  0.13265140    -0.07330
N934        N  0.17048943  0.75929760  0.12313752    -0.62700
N935        N  0.13400423  0.79209595  0.18217107    -0.06650
N936        N  0.13396050  0.78837475  0.20452143    -0.59430
N937        N  0.12177731  0.77657833  0.17159472    -0.07960
N938        N  0.11287215  0.76203019  0.18641281    -0.62270
N939        N  0.16976131  0.79036833  0.14322458    -0.06940
N940        N  0.19178929  0.78528110  0.14134672    -0.59450
Mn941      Mn  0.12030101  0.77531838  0.13436122     1.20190
Mn942      Mn  0.15280408  0.81780217  0.16261367     1.10090
Cl943      Cl  0.12105100  0.81914120  0.13335027    -0.87420
C944        C  0.19199105  0.76590201  0.12849224     0.94910
C945        C  0.12032545  0.76978865  0.20690623     0.94710
N946        N  0.08292858  0.62758060  0.36709787    -0.07580
N947        N  0.06633934  0.63530043  0.38094271    -0.59700
N948        N  0.10912993  0.57930825  0.35093314    -0.07260
N949        N  0.10981134  0.55686396  0.35168424    -0.61830
N950        N  0.12080171  0.58865635  0.36791704    -0.06860
N951        N  0.12979100  0.57176901  0.38070649    -0.59670
N952        N  0.07340712  0.61608874  0.35011007    -0.06530
N953        N  0.05102472  0.61550710  0.35201785    -0.62180
C954        C  0.04655501  0.62722652  0.37123984     0.94600
C955        C  0.12269719  0.55204984  0.36999613     0.94380
N956        N  0.12252716  0.58897208  0.28255879    -0.07760
N957        N  0.13179598  0.57457176  0.26781513    -0.60280
N958        N  0.07419638  0.61648881  0.29677381    -0.05880
N959        N  0.05228227  0.61756542  0.29099073    -0.61530
N960        N  0.08674447  0.62760351  0.28179996    -0.07790
N961        N  0.07387347  0.63680071  0.26586289    -0.60540
N962        N  0.11037309  0.57794288  0.29789920    -0.05530
N963        N  0.11088879  0.55563218  0.29379745    -0.61620
Mn964      Mn  0.09143021  0.59724564  0.32405973     1.18440
C965        C  0.12454860  0.55376646  0.27503563     0.96680
C966        C  0.05247190  0.63043291  0.27153128     0.97340
N967        N  0.16183860  0.62880157  0.36856854    -0.07810
N968        N  0.17826742  0.62222206  0.38319566    -0.64120
N969        N  0.13623844  0.67612250  0.34903854    -0.06620
N970        N  0.13664278  0.69854709  0.34878341    -0.64800
N971        N  0.12394238  0.66807026  0.36623950    -0.07320
N972        N  0.11562648  0.68601648  0.37809043    -0.64390
N973        N  0.17163272  0.63913533  0.35099208    -0.06220
N974        N  0.19392878  0.64002267  0.35308083    -0.65080
Mn975      Mn  0.12228893  0.62832342  0.36935493     1.10660
C976        C  0.19824312  0.62954563  0.37301655     0.97900
C977        C  0.12381940  0.70504386  0.36658981     0.97980
N978        N  0.12506203  0.66353932  0.28109012    -0.07330
N979        N  0.11695803  0.67791416  0.26554558    -0.62700
N980        N  0.17252948  0.63602469  0.29856185    -0.06650
N981        N  0.19475946  0.63392433  0.29462681    -0.59430
N982        N  0.16076356  0.62455742  0.28335738    -0.07960
N983        N  0.17452781  0.61402311  0.26901655    -0.62270
N984        N  0.13667146  0.67460155  0.29672581    -0.06940
N985        N  0.13692259  0.69675842  0.29229459    -0.59450
Mn986      Mn  0.12374953  0.62620206  0.28176219     1.20190
Mn987      Mn  0.15440929  0.65650115  0.32391609     1.10090
Cl988      Cl  0.12284323  0.62703849  0.32537118    -0.87420
C989        C  0.12449245  0.69856428  0.27288300     0.94910
C990        C  0.19573769  0.61984487  0.27617377     0.94710
N991        N  0.77515489  0.12615061  0.09576213    -0.07580
N992        N  0.75909521  0.13393918  0.08203265    -0.59700
N993        N  0.79042222  0.07779450  0.12205615    -0.07260
N994        N  0.78425871  0.05593911  0.12189581    -0.61830
N995        N  0.77578635  0.08998683  0.13400836    -0.06860
N996        N  0.75982321  0.07694344  0.14278852    -0.59670
N997        N  0.79052069  0.11445430  0.08421314    -0.06530
N998        N  0.78522815  0.11387257  0.06217657    -0.62180
C999        C  0.76572160  0.12647201  0.06112643     0.94600
C1000       C  0.76499672  0.05585389  0.13499826     0.94380
N1001       N  0.86003001  0.08811177  0.13279212    -0.07760
N1002       N  0.87362971  0.07165319  0.14127376    -0.60280
N1003       N  0.84314261  0.11362637  0.08436769    -0.05880
N1004       N  0.84471656  0.11279446  0.06193828    -0.61530
N1005       N  0.85969751  0.12586562  0.09361003    -0.07790
N1006       N  0.87294769  0.13395488  0.07670505    -0.60540
N1007       N  0.84338833  0.07828208  0.12113293    -0.05530
N1008       N  0.84528303  0.05587364  0.12099234    -0.61620
Mn1009     Mn  0.81703840  0.09581643  0.10276890     1.18440
C1010       C  0.86408198  0.05169628  0.13334367     0.96680
C1011       C  0.86324371  0.12526358  0.05712154     0.97340
N1012       N  0.77467606  0.12741961  0.16993765    -0.07810
N1013       N  0.75914841  0.11799255  0.18314898    -0.64120
N1014       N  0.78893291  0.17624596  0.14400519    -0.06620
N1015       N  0.78249034  0.19806848  0.14375235    -0.64800
N1016       N  0.77465637  0.16382936  0.13200888    -0.07320
N1017       N  0.75853385  0.17665990  0.12300726    -0.64390
N1018       N  0.78915385  0.13942941  0.18207552    -0.06220
N1019       N  0.78343611  0.13871856  0.20410813    -0.65080
Mn1020     Mn  0.77481319  0.12689426  0.13291822     1.10660
C1021       C  0.76468962  0.12494579  0.20447779     0.97900
C1022       C  0.76354796  0.19799143  0.13026951     0.97980
N1023       N  0.85888005  0.16733605  0.13355129    -0.07330
N1024       N  0.87194225  0.18395417  0.12467958    -0.62700
N1025       N  0.84242820  0.14105130  0.18225604    -0.06650
N1026       N  0.84396692  0.14130836  0.20473728    -0.59430
N1027       N  0.85930823  0.12923412  0.17274973    -0.07960
N1028       N  0.87265540  0.12087074  0.18943133    -0.62270
N1029       N  0.84199427  0.17697387  0.14526151    -0.06940
N1030       N  0.84318770  0.19947495  0.14488818    -0.59450
Mn1031     Mn  0.86120562  0.12770614  0.13319519     1.20190
Mn1032     Mn  0.81580250  0.15874483  0.16374658     1.10090
Cl1033     Cl  0.81753274  0.12731577  0.13316969    -0.87420
C1034       C  0.86174982  0.20388224  0.13214254     0.94910
C1035       C  0.86281643  0.12894284  0.20927969     0.94710
N1036       N  0.85851324  0.58789063  0.63074188    -0.07580
N1037       N  0.87148392  0.57092052  0.63912864    -0.59700
N1038       N  0.84226878  0.61581004  0.58322395    -0.07260
N1039       N  0.84436193  0.61372452  0.56101393    -0.61830
N1040       N  0.86027263  0.62573795  0.59253748    -0.06860
N1041       N  0.87535372  0.63020099  0.57571937    -0.59670
N1042       N  0.84150487  0.57885980  0.61888964    -0.06530
N1043       N  0.84255113  0.55634151  0.61875352    -0.62180
C1044       C  0.86117494  0.55140655  0.63121276     0.94600
C1045       C  0.86489846  0.62225633  0.55609495     0.94380
N1046       N  0.77462069  0.63004696  0.59415597    -0.07760
N1047       N  0.75904693  0.63931734  0.58081738    -0.60280
N1048       N  0.78818050  0.58007037  0.61865204    -0.05880
N1049       N  0.78125280  0.55854927  0.61687032    -0.61530
N1050       N  0.77342742  0.59214941  0.63059110    -0.07790
N1051       N  0.75646125  0.57927537  0.63767280    -0.60540
N1052       N  0.78937093  0.61807039  0.58211923    -0.05530
N1053       N  0.78385016  0.61866984  0.56006337    -0.61620
Mn1054     Mn  0.81555382  0.59801806  0.60054833     1.18440
C1055       C  0.76492816  0.63234253  0.55950583     0.96680
C1056       C  0.76137136  0.55844785  0.62894914     0.97340
N1057       N  0.86020250  0.66708704  0.63414942    -0.07810
N1058       N  0.87372610  0.68432372  0.62713834    -0.64120
N1059       N  0.84170171  0.63885737  0.68137268    -0.06620
N1060       N  0.84175251  0.63763551  0.70383857    -0.64800
N1061       N  0.85897825  0.62746876  0.67213860    -0.07320
N1062       N  0.87140695  0.61821086  0.68914971    -0.64390
N1063       N  0.84290283  0.67609489  0.64566201    -0.06220
N1064       N  0.84403665  0.69848673  0.64663236    -0.65080
Mn1065     Mn  0.86134450  0.62715008  0.63234144     1.10660
C1066       C  0.86321882  0.70390461  0.63546555     0.97900
C1067       C  0.86015234  0.62487606  0.70885545     0.97980
N1068       N  0.77430609  0.62801265  0.66823096    -0.07330
N1069       N  0.75821755  0.61938754  0.68130750    -0.62700
N1070       N  0.79075385  0.67725331  0.64398837    -0.06650
N1071       N  0.78630542  0.69947699  0.64439184    -0.59430
N1072       N  0.77535456  0.66636214  0.63191916    -0.07960
N1073       N  0.76012711  0.68080795  0.62360290    -0.62270
N1074       N  0.78921506  0.63929990  0.68051896    -0.06940
N1075       N  0.78325695  0.63911390  0.70243670    -0.59450
Mn1076     Mn  0.77412092  0.62919696  0.63124624     1.20190
Mn1077     Mn  0.81635299  0.65801441  0.66307974     1.10090
Cl1078     Cl  0.81715422  0.62808656  0.63173837    -0.87420
C1079       C  0.76378236  0.62654300  0.70251836     0.94910
C1080       C  0.76733910  0.70139870  0.63125437     0.94710
N1081       N  0.12186586  0.09115743  0.78131815    -0.07580
N1082       N  0.13062146  0.07720770  0.76582523    -0.59700
N1083       N  0.07341425  0.11677716  0.79789099    -0.07260
N1084       N  0.05145140  0.11611253  0.79240005    -0.61830
N1085       N  0.08486339  0.12886937  0.78281924    -0.06860
N1086       N  0.07114433  0.13719543  0.76705919    -0.59670
N1087       N  0.11068391  0.07961413  0.79701688    -0.06530
N1088       N  0.11123806  0.05745226  0.79250738    -0.62180
C1089       C  0.12416386  0.05622158  0.77324448     0.94600
C1090       C  0.05040995  0.12911065  0.77312328     0.94380
N1091       N  0.08367376  0.12677246  0.86776416    -0.07760
N1092       N  0.06648155  0.13370102  0.88149593    -0.60280
N1093       N  0.11125000  0.07940589  0.84972735    -0.05880
N1094       N  0.11283021  0.05696833  0.84981807    -0.61530
N1095       N  0.12305112  0.08871180  0.86658841    -0.07790
N1096       N  0.13304447  0.07189540  0.87866629    -0.60540
N1097       N  0.07461293  0.11562855  0.85036017    -0.05530
N1098       N  0.05228211  0.11485515  0.85159326    -0.61620
Mn1099     Mn  0.09230471  0.09767817  0.82400363     1.18440
C1100       C  0.04690139  0.12573462  0.87094195     0.96680
C1101       C  0.12644336  0.05220497  0.86763622     0.97340
N1102       N  0.12157400  0.16542571  0.78241915    -0.07810
N1103       N  0.11167416  0.17899074  0.76748356    -0.64120
N1104       N  0.17096374  0.13957885  0.79583963    -0.06620
N1105       N  0.19283481  0.13929831  0.78987083    -0.64800
N1106       N  0.15873884  0.12806892  0.78099910    -0.07320
N1107       N  0.17178934  0.11942180  0.76481484    -0.64390
N1108       N  0.13383091  0.17727136  0.79692555    -0.06220
N1109       N  0.13295685  0.19941373  0.79177403    -0.65080
Mn1110     Mn  0.12180049  0.12841642  0.78147888     1.10660
C1111       C  0.11876593  0.20018909  0.77335666     0.97900
C1112       C  0.19302588  0.12633802  0.77057408     0.97980
N1113       N  0.16320250  0.12926529  0.86627954    -0.07330
N1114       N  0.18027120  0.12156126  0.87958565    -0.62700
N1115       N  0.13596541  0.17699067  0.84962475    -0.06650
N1116       N  0.13667875  0.19940023  0.85102662    -0.59430
N1117       N  0.12474847  0.16777281  0.86701631    -0.07960
N1118       N  0.11759202  0.18471451  0.88080153    -0.62270
N1119       N  0.17226697  0.14045721  0.84879413    -0.06940
N1120       N  0.19470866  0.14069769  0.84973517    -0.59450
Mn1121     Mn  0.12358156  0.12816963  0.86879320     1.20190
Mn1122     Mn  0.15354108  0.15879724  0.82294062     1.10090
Cl1123     Cl  0.12282526  0.12826900  0.82460861    -0.87420
C1124       C  0.19988994  0.12921655  0.86893881     0.94910
C1125       C  0.12557205  0.20438240  0.87046088     0.94710
N1126       N  0.62021617  0.36231546  0.09384813    -0.07580
N1127       N  0.62829904  0.37527618  0.07673876    -0.59700
N1128       N  0.57296603  0.34767566  0.12276201    -0.07260
N1129       N  0.55068607  0.35049506  0.12261098    -0.61830
N1130       N  0.58352208  0.36440704  0.13367140    -0.06860
N1131       N  0.56767897  0.37906752  0.14157563    -0.59670
N1132       N  0.60729533  0.34601906  0.08501608    -0.06530
N1133       N  0.60596671  0.34762710  0.06257413    -0.62180
C1134       C  0.61886847  0.36584427  0.05740204     0.94600
C1135       C  0.54732630  0.36996413  0.13416946     0.94380
N1136       N  0.58230550  0.27858227  0.13574835    -0.07760
N1137       N  0.56830814  0.26402652  0.14578416    -0.60280
N1138       N  0.60637029  0.29299795  0.08560695    -0.05880
N1139       N  0.60689062  0.28941163  0.06325228    -0.61530
N1140       N  0.61767743  0.27685063  0.09651460    -0.07790
N1141       N  0.62630116  0.26188600  0.08187201    -0.60540
N1142       N  0.57075950  0.29459610  0.12490174    -0.05530
N1143       N  0.54847406  0.29121025  0.12728224    -0.61620
Mn1144     Mn  0.58915210  0.32040488  0.10444178     1.18440
C1145       C  0.54721685  0.27218593  0.14071270     0.96680
C1146       C  0.61940706  0.26994264  0.06119079     0.97340
N1147       N  0.62578750  0.36289810  0.17269048    -0.07810
N1148       N  0.61825228  0.37640164  0.18966849    -0.64120
N1149       N  0.67215637  0.34366378  0.14326823    -0.06620
N1150       N  0.69464018  0.34403292  0.14217668    -0.64800
N1151       N  0.66281224  0.36130682  0.13249822    -0.07320
N1152       N  0.67966106  0.37428798  0.12385916    -0.64390
N1153       N  0.63764231  0.34582553  0.18175783    -0.06220
N1154       N  0.63879494  0.34737524  0.20422439    -0.65080
Mn1155     Mn  0.62313861  0.36436497  0.13320268     1.10660
C1156       C  0.62681683  0.36636313  0.20922691     0.97900
C1157       C  0.69943209  0.36299008  0.13010236     0.97980
N1158       N  0.65661088  0.27585983  0.13219504    -0.07330
N1159       N  0.66923958  0.25912490  0.12390516    -0.62700
N1160       N  0.63398412  0.29297916  0.18197520    -0.06650
N1161       N  0.63467992  0.28872006  0.20421171    -0.59430
N1162       N  0.62143048  0.27764908  0.17140500    -0.07960
N1163       N  0.61318148  0.26265724  0.18620247    -0.62270
N1164       N  0.66938356  0.29070453  0.14313288    -0.06940
N1165       N  0.69108421  0.28413703  0.14285340    -0.59450
Mn1166     Mn  0.61948763  0.27668234  0.13396040     1.20190
Mn1167     Mn  0.65349207  0.31841567  0.16265267     1.10090
Cl1168     Cl  0.62131230  0.32024521  0.13356772    -0.87420
C1169       C  0.69063392  0.26434618  0.13073695     0.94910
C1170       C  0.62120532  0.27006720  0.20661560     0.94710
N1171       N  0.08790497  0.27693963  0.63059311    -0.07580
N1172       N  0.07491156  0.26002530  0.63780111    -0.59700
N1173       N  0.11280623  0.29386663  0.58219670    -0.07260
N1174       N  0.11365612  0.28974620  0.55992877    -0.61830
N1175       N  0.12509321  0.27873461  0.59340732    -0.06860
N1176       N  0.13462799  0.26394733  0.57920812    -0.59670
N1177       N  0.07565373  0.29231107  0.61965940    -0.06530
N1178       N  0.05393477  0.28616496  0.61887616    -0.62180
C1179       C  0.05380490  0.26606318  0.63046903     0.94600
C1180       C  0.12767366  0.27119569  0.55830360     0.94380
N1181       N  0.12026683  0.36390750  0.59137292    -0.07760
N1182       N  0.12615697  0.37748500  0.57366284    -0.60280
N1183       N  0.07349247  0.34522704  0.61935125    -0.05880
N1184       N  0.05099619  0.34589589  0.61948380    -0.61530
N1185       N  0.08245341  0.36269369  0.63055376    -0.07790
N1186       N  0.06535768  0.37567150  0.63878976    -0.60540
N1187       N  0.10951832  0.34599161  0.58295331    -0.05530
N1188       N  0.10803813  0.34670554  0.56066086    -0.61620
Mn1189     Mn  0.09271683  0.31953752  0.60104878     1.18440
C1190       C  0.11814993  0.36610186  0.55449805     0.96680
C1191       C  0.04587000  0.36479050  0.63147660     0.97340
N1192       N  0.16209605  0.28007166  0.63069059    -0.07810
N1193       N  0.17616880  0.26428203  0.62288740    -0.64120
N1194       N  0.13554404  0.29343034  0.68002197    -0.06620
N1195       N  0.13473528  0.28731228  0.70195571    -0.64800
N1196       N  0.12456953  0.27849983  0.66743162    -0.07320
N1197       N  0.11562866  0.26242640  0.68021379    -0.64390
N1198       N  0.17313381  0.29506428  0.64319862    -0.06220
N1199       N  0.19508601  0.28951822  0.64454977    -0.65080
Mn1200     Mn  0.12504243  0.27822088  0.63052328     1.10660
C1201       C  0.19663199  0.27026603  0.63165213     0.97900
C1202       C  0.12209398  0.26775617  0.70161948     0.97980
N1203       N  0.12295628  0.36357648  0.67102030    -0.07330
N1204       N  0.11402415  0.37650657  0.68780714    -0.62700
N1205       N  0.17147282  0.34783424  0.64424816    -0.06650
N1206       N  0.19389761  0.34890232  0.64377136    -0.59430
N1207       N  0.16183584  0.36456517  0.63229354    -0.07960
N1208       N  0.17854394  0.37756498  0.62335457    -0.62270
N1209       N  0.13498050  0.34683411  0.68051664    -0.06940
N1210       N  0.13486658  0.34806690  0.70300035    -0.59450
Mn1211     Mn  0.12196666  0.36556760  0.63126725     1.20190
Mn1212     Mn  0.15398268  0.32102337  0.66234583     1.10090
Cl1213     Cl  0.12343491  0.32140237  0.63130684    -0.87420
C1214       C  0.12184813  0.36642397  0.70768018     0.94910
C1215       C  0.19845858  0.36728211  0.63085375     0.94710
N1216       N  0.12654132  0.39254752  0.09356234    -0.07580
N1217       N  0.12037471  0.37824448  0.07679720    -0.59700
N1218       N  0.17307626  0.41080912  0.12111712    -0.07260
N1219       N  0.19535473  0.40944421  0.11931563    -0.61830
N1220       N  0.16430457  0.39284602  0.13170330    -0.06860
N1221       N  0.18159163  0.37855375  0.13704666    -0.59670
N1222       N  0.13785601  0.40979329  0.08431281    -0.06530
N1223       N  0.13984790  0.40770993  0.06199447    -0.62180
C1224       C  0.12899877  0.38816790  0.05719488     0.94600
C1225       C  0.20093255  0.38941751  0.12885726     0.94380
N1226       N  0.16076150  0.47909037  0.13244615    -0.07760
N1227       N  0.17463409  0.49497761  0.14026615    -0.60280
N1228       N  0.13537120  0.46237172  0.08401120    -0.05880
N1229       N  0.13544992  0.46677422  0.06177376    -0.61530
N1230       N  0.12379305  0.47811276  0.09519938    -0.07790
N1231       N  0.11558506  0.49355554  0.08094301    -0.60540
N1232       N  0.17231036  0.46320450  0.12145024    -0.05530
N1233       N  0.19440333  0.46785598  0.12141171    -0.61620
Mn1234     Mn  0.15467967  0.43646750  0.10268943     1.18440
C1235       C  0.19553394  0.48757008  0.13346989     0.96680
C1236       C  0.12266703  0.48609978  0.06014857     0.97340
N1237       N  0.12228582  0.39285326  0.17255098    -0.07810
N1238       N  0.12704128  0.37813591  0.18959097    -0.64120
N1239       N  0.07547185  0.41019862  0.14552569    -0.06620
N1240       N  0.05308260  0.40850272  0.14652299    -0.64800
N1241       N  0.08489443  0.39305106  0.13401919    -0.07320
N1242       N  0.06815548  0.37930807  0.12664179    -0.64390
N1243       N  0.11166224  0.41078910  0.18144846    -0.06220
N1244       N  0.10924472  0.40896486  0.20366487    -0.65080
Mn1245     Mn  0.12450459  0.39108984  0.13300573     1.10660
C1246       C  0.11842176  0.38867652  0.20892344     0.97900
C1247       C  0.04843372  0.38937867  0.13484729     0.97980
N1248       N  0.08643579  0.47854646  0.13241584    -0.07330
N1249       N  0.07250364  0.49446111  0.12456837    -0.62700
N1250       N  0.11245666  0.46353696  0.18137007    -0.06650
N1251       N  0.11397769  0.46739334  0.20365623    -0.59430
N1252       N  0.12347963  0.47932810  0.16979839    -0.07960
N1253       N  0.13284409  0.49427215  0.18382875    -0.62270
N1254       N  0.07505468  0.46310775  0.14410932    -0.06940
N1255       N  0.05299869  0.46830952  0.14473314    -0.59450
Mn1256     Mn  0.12359211  0.47932883  0.13243875     1.20190
Mn1257     Mn  0.09357873  0.43679751  0.16321858     1.10090
Cl1258     Cl  0.12407323  0.43561530  0.13284512    -0.87420
C1259       C  0.05165490  0.48782177  0.13216242     0.94910
C1260       C  0.12707091  0.48650015  0.20494147     0.94710
N1261       N  0.41002900  0.38149315  0.23596818    -0.07580
N1262       N  0.42331424  0.37281792  0.25186705    -0.59700
N1263       N  0.38472399  0.43008683  0.21909699    -0.07260
N1264       N  0.38375526  0.45242508  0.22264500    -0.61830
N1265       N  0.37309799  0.41907639  0.23488845    -0.06860
N1266       N  0.36373571  0.43359918  0.24948752    -0.59670
N1267       N  0.42208753  0.39274824  0.22070425    -0.06530
N1268       N  0.44409065  0.39229282  0.22620644    -0.62180
C1269       C  0.44456049  0.37950327  0.24569279     0.94600
C1270       C  0.37023913  0.45435588  0.24145357     0.94380
N1271       N  0.37508930  0.41938593  0.14927785    -0.07760
N1272       N  0.36728596  0.43604639  0.13548063    -0.60280
N1273       N  0.42259714  0.39259255  0.16763302    -0.05880
N1274       N  0.44500669  0.39265097  0.16681724    -0.61530
N1275       N  0.41357336  0.38117071  0.15034226    -0.07790
N1276       N  0.43064405  0.37318745  0.13715610    -0.60540
N1277       N  0.38643324  0.42896577  0.16633488    -0.05530
N1278       N  0.38667677  0.45139824  0.16470081    -0.61620
Mn1279     Mn  0.40420449  0.41127087  0.19328407     1.18440
C1280       C  0.37492524  0.45587342  0.14557429     0.96680
C1281       C  0.45013230  0.38069200  0.14795100     0.97340
N1282       N  0.33609618  0.38219211  0.23511260    -0.07810
N1283       N  0.32212130  0.39328160  0.24887919    -0.64120
N1284       N  0.36188819  0.33287676  0.22103712    -0.06620
N1285       N  0.36233986  0.31070028  0.22544515    -0.64800
N1286       N  0.37303141  0.34430360  0.23678109    -0.07320
N1287       N  0.38150840  0.33017358  0.25234838    -0.64390
N1288       N  0.32461214  0.37059095  0.21978084    -0.06220
N1289       N  0.30231636  0.37331003  0.22296245    -0.65080
Mn1290     Mn  0.37307836  0.38173439  0.23626539     1.10660
C1291       C  0.30105095  0.38776960  0.24113525     0.97900
C1292       C  0.37491683  0.30928377  0.24481492     0.97980
N1293       N  0.37316143  0.34035314  0.15095653    -0.07330
N1294       N  0.38132325  0.32323234  0.13798788    -0.62700
N1295       N  0.32527029  0.36773822  0.16732366    -0.06650
N1296       N  0.30307692  0.36554040  0.16545804    -0.59430
N1297       N  0.33436965  0.37792396  0.14927804    -0.07960
N1298       N  0.31746109  0.38261749  0.13441651    -0.62270
N1299       N  0.36178416  0.33143839  0.16841322    -0.06940
N1300       N  0.36199289  0.30893488  0.16792415    -0.59450
Mn1301     Mn  0.37405177  0.37976695  0.14819124     1.20190
Mn1302     Mn  0.34324932  0.35054806  0.19405818     1.10090
Cl1303     Cl  0.37366578  0.38083347  0.19264958    -0.87420
C1304       C  0.37412192  0.30375802  0.14911787     0.94910
C1305       C  0.29798036  0.37442461  0.14500968     0.94710
N1306       N  0.66299245  0.62604049  0.39875346    -0.07580
N1307       N  0.68011950  0.63370015  0.38553380    -0.59700
N1308       N  0.63635756  0.57788225  0.41355142    -0.07260
N1309       N  0.63643926  0.55546318  0.41207158    -0.61830
N1310       N  0.62492891  0.58758731  0.39653634    -0.06860
N1311       N  0.61681688  0.57099334  0.38296519    -0.59670
N1312       N  0.67197351  0.61413744  0.41586465    -0.06530
N1313       N  0.69439056  0.61307098  0.41459578    -0.62180
C1314       C  0.69957121  0.62519231  0.39583477     0.94600
C1315       C  0.62441735  0.55108080  0.39314090     0.94380
N1316       N  0.62075361  0.58604468  0.48157604    -0.07760
N1317       N  0.61130395  0.57103287  0.49560989    -0.60280
N1318       N  0.66998755  0.61354238  0.46929311    -0.05880
N1319       N  0.69194282  0.61547748  0.47465422    -0.61530
N1320       N  0.65720750  0.62367019  0.48480773    -0.07790
N1321       N  0.66994199  0.63278715  0.50087196    -0.60540
N1322       N  0.63338233  0.57559114  0.46613426    -0.05530
N1323       N  0.63300150  0.55316745  0.46936098    -0.61620
Mn1324     Mn  0.65321965  0.59520071  0.44108639     1.18440
C1325       C  0.61881127  0.55056687  0.48757385     0.96680
C1326       C  0.69157289  0.62779923  0.49444522     0.97340
N1327       N  0.58346143  0.62810505  0.39636035    -0.07810
N1328       N  0.56670200  0.62011257  0.38285580    -0.64120
N1329       N  0.60998980  0.67521556  0.41629881    -0.06620
N1330       N  0.60963374  0.69766496  0.41650564    -0.64800
N1331       N  0.62179321  0.66697699  0.39881915    -0.07320
N1332       N  0.62970559  0.68475959  0.38650972    -0.64390
N1333       N  0.57386351  0.63910974  0.41367210    -0.06220
N1334       N  0.55146092  0.63906106  0.41252429    -0.65080
Mn1335     Mn  0.62335143  0.62723235  0.39578278     1.10660
C1336       C  0.54681190  0.62729901  0.39348916     0.97900
C1337       C  0.62184043  0.70384638  0.39812445     0.97980
N1338       N  0.61975315  0.66097885  0.48464282    -0.07330
N1339       N  0.62813106  0.67484515  0.50037931    -0.62700
N1340       N  0.57226224  0.63573548  0.46597299    -0.06650
N1341       N  0.55014499  0.63664687  0.47067378    -0.59430
N1342       N  0.58310353  0.62322906  0.48122715    -0.07960
N1343       N  0.56869295  0.61501197  0.49646019    -0.62270
N1344       N  0.60923548  0.67281165  0.46863019    -0.06940
N1345       N  0.61006752  0.69497751  0.47300655    -0.59450
Mn1346     Mn  0.62013119  0.62339297  0.48363069     1.20190
Mn1347     Mn  0.59129065  0.65579252  0.44098868     1.10090
Cl1348     Cl  0.62206391  0.62541028  0.44007476    -0.87420
C1349       C  0.62231781  0.69596471  0.49257589     0.94910
C1350       C  0.54823584  0.62345507  0.48966706     0.94710
N1351       N  0.52546422  0.34338641  0.38631148    -0.07580
N1352       N  0.50933633  0.33061877  0.37742243    -0.59700
N1353       N  0.54240622  0.36684508  0.43495935    -0.07260
N1354       N  0.53611924  0.36571977  0.45683330    -0.61830
N1355       N  0.52858216  0.38047084  0.42364540    -0.06860
N1356       N  0.51315396  0.38946126  0.43728153    -0.59670
N1357       N  0.54058273  0.33059580  0.39689246    -0.06530
N1358       N  0.53493201  0.30868334  0.39579308    -0.62180
C1359       C  0.51540432  0.30897227  0.38329711     0.94600
C1360       C  0.51770557  0.38006226  0.45784868     0.94380
N1361       N  0.61203389  0.37559491  0.42378685    -0.07760
N1362       N  0.62499377  0.38309434  0.44123802    -0.60280
N1363       N  0.59326790  0.32871643  0.39587316    -0.05880
N1364       N  0.59364561  0.30623626  0.39506337    -0.61530
N1365       N  0.61055202  0.33786061  0.38446361    -0.07790
N1366       N  0.62323460  0.32086411  0.37556656    -0.60540
N1367       N  0.59477117  0.36399212  0.43260372    -0.05530
N1368       N  0.59537533  0.36325362  0.45493163    -0.61620
Mn1369     Mn  0.56800758  0.34725682  0.41520834     1.18440
C1370       C  0.61393790  0.37508010  0.46062054     0.96680
C1371       C  0.61215416  0.30126746  0.38243891     0.97340
N1372       N  0.52850528  0.41761954  0.38726540    -0.07810
N1373       N  0.51277590  0.43126659  0.39581246    -0.64120
N1374       N  0.54005568  0.39184422  0.33710829    -0.06620
N1375       N  0.53312451  0.39194817  0.31546263    -0.64800
N1376       N  0.52539654  0.38078853  0.34999347    -0.07320
N1377       N  0.50853938  0.37278665  0.33767546    -0.64390
N1378       N  0.54266246  0.42904404  0.37409836    -0.06220
N1379       N  0.53639068  0.45089395  0.37287612    -0.65080
Mn1380     Mn  0.52679906  0.38060746  0.38686822     1.10660
C1381       C  0.51763747  0.45190103  0.38666086     0.97900
C1382       C  0.51331236  0.37978080  0.31622580     0.97980
N1383       N  0.61058213  0.37890504  0.34415299    -0.07330
N1384       N  0.62323714  0.37047507  0.32687085    -0.62700
N1385       N  0.59542156  0.42689191  0.37133024    -0.06650
N1386       N  0.59711984  0.44929390  0.37102604    -0.59430
N1387       N  0.61235645  0.41708365  0.38278082    -0.07960
N1388       N  0.62610400  0.43359435  0.39068211    -0.62270
N1389       N  0.59325695  0.39056139  0.33529504    -0.06940
N1390       N  0.59358808  0.39032290  0.31281279    -0.59450
Mn1391     Mn  0.61332198  0.37740881  0.38385771     1.20190
Mn1392     Mn  0.56810009  0.40976875  0.35414239     1.10090
Cl1393     Cl  0.56938472  0.37875929  0.38497690    -0.87420
C1394       C  0.61214309  0.37790845  0.30739523     0.94910
C1395       C  0.61615381  0.45354019  0.38286881     0.94710
N1396       N  0.35929626  0.08894885  0.62974100    -0.07580
N1397       N  0.37161657  0.07130346  0.63784787    -0.59700
N1398       N  0.34451137  0.11831764  0.58269409    -0.07260
N1399       N  0.34631127  0.11914647  0.56031111    -0.61830
N1400       N  0.36149308  0.12905123  0.59302120    -0.06860
N1401       N  0.37542239  0.13760116  0.57688368    -0.59670
N1402       N  0.34239691  0.08066307  0.61727799    -0.06530
N1403       N  0.34281494  0.05822511  0.61654769    -0.62180
C1404       C  0.36090646  0.05217076  0.62927189     0.94600
C1405       C  0.36545874  0.13098486  0.55661252     0.94380
N1406       N  0.27734498  0.13300913  0.59265988    -0.07760
N1407       N  0.26240882  0.14321338  0.57935832    -0.60280
N1408       N  0.28964455  0.08195994  0.61623925    -0.05880
N1409       N  0.28368352  0.06011594  0.61517384    -0.61530
N1410       N  0.27438658  0.09380606  0.62775132    -0.07790
N1411       N  0.25777353  0.08052622  0.63499433    -0.60540
N1412       N  0.29188756  0.12092885  0.58052582    -0.05530
N1413       N  0.28673851  0.12223900  0.55839710    -0.61620
Mn1414     Mn  0.31727056  0.10019855  0.59895433     1.18440
C1415       C  0.26828635  0.13654623  0.55796818     0.96680
C1416       C  0.26386797  0.05954412  0.62731242     0.97340
N1417       N  0.36083385  0.16804420  0.63582807    -0.07810
N1418       N  0.37411125  0.18539521  0.62873693    -0.64120
N1419       N  0.34182311  0.13867093  0.68198866    -0.06620
N1420       N  0.34268547  0.13776128  0.70449974    -0.64800
N1421       N  0.35902838  0.12742930  0.67235307    -0.07320
N1422       N  0.37194889  0.11828235  0.68898384    -0.64390
N1423       N  0.34359258  0.17679039  0.64763165    -0.06220
N1424       N  0.34462366  0.19915727  0.64887749    -0.65080
Mn1425     Mn  0.36212451  0.12837447  0.63273635     1.10660
C1426       C  0.36351789  0.20480555  0.63724039     0.97900
C1427       C  0.36135132  0.12512148  0.70891850     0.97980
N1428       N  0.27397453  0.12865481  0.66656241    -0.07330
N1429       N  0.25678934  0.12076998  0.67872919    -0.62700
N1430       N  0.29130156  0.17846893  0.64455750    -0.06650
N1431       N  0.28615429  0.20058171  0.64569507    -0.59430
N1432       N  0.27673717  0.16775522  0.63136466    -0.07960
N1433       N  0.26156502  0.18211205  0.62294275    -0.62270
N1434       N  0.28870024  0.13925795  0.67969258    -0.06940
N1435       N  0.28160808  0.13922804  0.70125843    -0.59450
Mn1436     Mn  0.27542251  0.13080393  0.62956257     1.20190
Mn1437     Mn  0.31649459  0.15838626  0.66376495     1.10090
Cl1438     Cl  0.31849432  0.12936990  0.63131635    -0.87420
C1439       C  0.26163666  0.12752493  0.70026319     0.94910
C1440       C  0.26767308  0.20257006  0.63177096     0.94710
N1441       N  0.27188936  0.62420634  0.09936813    -0.07580
N1442       N  0.25522466  0.63244434  0.08675310    -0.59700
N1443       N  0.29115919  0.57619649  0.12419124    -0.07260
N1444       N  0.28682434  0.55396354  0.12368595    -0.61830
N1445       N  0.27587076  0.58697793  0.13661227    -0.06860
N1446       N  0.26088844  0.57248709  0.14508756    -0.59670
N1447       N  0.28703810  0.61350369  0.08670620    -0.06530
N1448       N  0.28076880  0.61385914  0.06485510    -0.62180
C1449       C  0.26088586  0.62606078  0.06523881     0.94600
C1450       C  0.26808285  0.55188161  0.13725630     0.94380
N1451       N  0.36013810  0.58955841  0.13250506    -0.07760
N1452       N  0.37421532  0.57341539  0.14084667    -0.60280
N1453       N  0.33968955  0.61549523  0.08513925    -0.05880
N1454       N  0.34082605  0.61329640  0.06287626    -0.61530
N1455       N  0.35737682  0.62673848  0.09346795    -0.07790
N1456       N  0.37122173  0.63209794  0.07586955    -0.60540
N1457       N  0.34346108  0.57937275  0.12119060    -0.05530
N1458       N  0.34570397  0.55699033  0.12135189    -0.61620
Mn1459     Mn  0.31544671  0.59610028  0.10411545     1.18440
C1460       C  0.36480108  0.55321279  0.13339008     0.96680
C1461       C  0.36034696  0.62332700  0.05682237     0.97340
N1462       N  0.27532882  0.62403900  0.17274643    -0.07810
N1463       N  0.26073391  0.61364943  0.18611108    -0.64120
N1464       N  0.28535282  0.67428496  0.14630649    -0.06620
N1465       N  0.27917320  0.69606976  0.14409785    -0.64800
N1466       N  0.27068044  0.66100346  0.13586454    -0.07320
N1467       N  0.25434705  0.67318490  0.12627183    -0.64390
N1468       N  0.28871527  0.63756415  0.18449645    -0.06220
N1469       N  0.28287813  0.63703984  0.20653631    -0.65080
Mn1470     Mn  0.27331070  0.62403397  0.13623381     1.10660
C1471       C  0.26519922  0.62184583  0.20705803     0.97900
C1472       C  0.25976346  0.69503209  0.13128314     0.97980
N1473       N  0.35588741  0.66865736  0.13392355    -0.07330
N1474       N  0.36854567  0.68593405  0.12572287    -0.62700
N1475       N  0.34174302  0.64189335  0.18280759    -0.06650
N1476       N  0.34353324  0.64198944  0.20527215    -0.59430
N1477       N  0.35886129  0.63066102  0.17295767    -0.07960
N1478       N  0.37265135  0.62257440  0.18944335    -0.62270
N1479       N  0.33855795  0.67748135  0.14565882    -0.06940
N1480       N  0.33904032  0.69999515  0.14573268    -0.59450
Mn1481     Mn  0.35996229  0.62906348  0.13320487     1.20190
Mn1482     Mn  0.31369839  0.65825396  0.16514350     1.10090
Cl1483     Cl  0.31632853  0.62703543  0.13466189    -0.87420
C1484       C  0.35760828  0.70544807  0.13334603     0.94910
C1485       C  0.36274627  0.63014034  0.20947476     0.94710
N1486       N  0.47142814  0.13232907  0.09625322    -0.07580
N1487       N  0.48703092  0.12324425  0.08295781    -0.59700
N1488       N  0.45549357  0.18114905  0.12228384    -0.07260
N1489       N  0.45904634  0.20346346  0.12421099    -0.61830
N1490       N  0.47108858  0.16956896  0.13361800    -0.06860
N1491       N  0.48551961  0.18363495  0.14366466    -0.59670
N1492       N  0.45670981  0.14437946  0.08428908    -0.06530
N1493       N  0.46247497  0.14425463  0.06227952    -0.62180
C1494       C  0.48146893  0.13070941  0.06180200     0.94600
C1495       C  0.47781096  0.20478249  0.13779322     0.94380
N1496       N  0.38605001  0.16986765  0.13268418    -0.07760
N1497       N  0.37250891  0.18615380  0.14162816    -0.60280
N1498       N  0.40373427  0.14456989  0.08403652    -0.05880
N1499       N  0.40251027  0.14514345  0.06155670    -0.61530
N1500       N  0.38707286  0.13231299  0.09325335    -0.07790
N1501       N  0.37412541  0.12403614  0.07626109    -0.60540
N1502       N  0.40263904  0.17995968  0.12101179    -0.05530
N1503       N  0.40079857  0.20239416  0.12146825    -0.61620
Mn1504     Mn  0.42955789  0.16278434  0.10261465     1.18440
C1505       C  0.38208325  0.20631410  0.13412476     0.96680
C1506       C  0.38411114  0.13253873  0.05663855     0.97340
N1507       N  0.47195065  0.13167504  0.16987767    -0.07810
N1508       N  0.48740810  0.14079626  0.18320331    -0.64120
N1509       N  0.45842743  0.08254170  0.14378972    -0.06620
N1510       N  0.46376348  0.06050987  0.14326577    -0.64800
N1511       N  0.47363327  0.09462354  0.13257395    -0.07320
N1512       N  0.48967719  0.08112306  0.12401159    -0.64390
N1513       N  0.45765145  0.11915126  0.18176846    -0.06220
N1514       N  0.46347140  0.11916121  0.20376591    -0.65080
Mn1515     Mn  0.47231312  0.13210840  0.13301941     1.10660
C1516       C  0.48222407  0.13292960  0.20426176     0.97900
C1517       C  0.48326051  0.05979570  0.13067826     0.97980
N1518       N  0.38807124  0.09063245  0.13352904    -0.07330
N1519       N  0.37467566  0.07374739  0.12584736    -0.62700
N1520       N  0.40482291  0.11685036  0.18140849    -0.06650
N1521       N  0.40348796  0.11516663  0.20373162    -0.59430
N1522       N  0.38706281  0.12783295  0.17263913    -0.07960
N1523       N  0.37308433  0.13382667  0.18991753    -0.62270
N1524       N  0.40559325  0.08135886  0.14454701    -0.06940
N1525       N  0.40465908  0.05886472  0.14462253    -0.59450
Mn1526     Mn  0.38520419  0.13016704  0.13301236     1.20190
Mn1527     Mn  0.43149597  0.09984166  0.16300580     1.10090
Cl1528     Cl  0.42898355  0.13123315  0.13288882    -0.87420
C1529       C  0.38550039  0.05407363  0.13310278     0.94910
C1530       C  0.38385205  0.12561016  0.20930317     0.94710
N1531       N  0.33454640  0.14462607  0.38201826    -0.07580
N1532       N  0.31769846  0.13102271  0.38950518    -0.59700
N1533       N  0.36152444  0.16154520  0.33439164    -0.07260
N1534       N  0.35987146  0.15961389  0.31208171    -0.61830
N1535       N  0.37251572  0.14401776  0.34366023    -0.06860
N1536       N  0.37858345  0.12957948  0.32685213    -0.59670
N1537       N  0.32529814  0.16176472  0.37036892    -0.06530
N1538       N  0.30290999  0.16022433  0.36935796    -0.62180
C1539       C  0.29812161  0.14112729  0.38110267     0.94600
C1540       C  0.37041667  0.13981540  0.30718561     0.94380
N1541       N  0.37449260  0.22967774  0.34579747    -0.07760
N1542       N  0.38340445  0.24491515  0.33165161    -0.60280
N1543       N  0.32580242  0.21466437  0.37148381    -0.05880
N1544       N  0.30409858  0.22102879  0.37012790    -0.61530
N1545       N  0.33749752  0.22945162  0.38357828    -0.07790
N1546       N  0.32417043  0.24590582  0.39119576    -0.60540
N1547       N  0.36298872  0.21420867  0.33439013    -0.05530
N1548       N  0.36344537  0.21865982  0.31218964    -0.61620
Mn1549     Mn  0.34380585  0.18799187  0.35256941     1.18440
C1550       C  0.37671272  0.23756568  0.31073164     0.96680
C1551       C  0.30348061  0.24056353  0.38263549     0.97340
N1552       N  0.41371021  0.14424124  0.38432432    -0.07810
N1553       N  0.43044032  0.13053200  0.37652346    -0.64120
N1554       N  0.38705980  0.16175681  0.43197497    -0.06620
N1555       N  0.38694237  0.16076300  0.45444699    -0.64800
N1556       N  0.37542493  0.14472261  0.42272158    -0.07320
N1557       N  0.36704984  0.13162458  0.43961636    -0.64390
N1558       N  0.42317999  0.16138415  0.39565256    -0.06220
N1559       N  0.44558379  0.15977107  0.39604275    -0.65080
Mn1560     Mn  0.37409874  0.14257136  0.38323777     1.10660
C1561       C  0.45016771  0.14063787  0.38430043     0.97900
C1562       C  0.37462301  0.14209862  0.45924987     0.97980
N1563       N  0.37467273  0.23019460  0.42062388    -0.07330
N1564       N  0.36705979  0.24635282  0.43454674    -0.62700
N1565       N  0.42333055  0.21481942  0.39449918    -0.06650
N1566       N  0.44512973  0.22110419  0.39447311    -0.59430
N1567       N  0.41103922  0.22956794  0.38281570    -0.07960
N1568       N  0.42388786  0.24575563  0.37421935    -0.62270
N1569       N  0.38642330  0.21472751  0.43201578    -0.06940
N1570       N  0.38725044  0.21999646  0.45401536    -0.59450
Mn1571     Mn  0.37433732  0.22997905  0.38323220     1.20190
Mn1572     Mn  0.40525976  0.18800148  0.41369667     1.10090
Cl1573     Cl  0.37440682  0.18648488  0.38323363    -0.87420
C1574       C  0.37488954  0.23964427  0.45532593     0.94910
C1575       C  0.44506275  0.24055387  0.38151321     0.94710
N1576       N  0.58987526  0.77367061  0.62880476    -0.07580
N1577       N  0.57664937  0.75678996  0.63564014    -0.59700
N1578       N  0.61530114  0.79250648  0.58139581    -0.07260
N1579       N  0.61432971  0.78782638  0.55925220    -0.61830
N1580       N  0.62738109  0.77685419  0.59220330    -0.06860
N1581       N  0.63506545  0.76127770  0.57771921    -0.59670
N1582       N  0.57782353  0.78951835  0.61829183    -0.06530
N1583       N  0.55597810  0.78378258  0.61760992    -0.62180
C1584       C  0.55553502  0.76347771  0.62886542     0.94600
C1585       C  0.62722280  0.76858606  0.55716590     0.94380
N1586       N  0.62143489  0.86315589  0.59364106    -0.07760
N1587       N  0.62547755  0.87902857  0.57750058    -0.60280
N1588       N  0.57533665  0.84234968  0.61967188    -0.05880
N1589       N  0.55293087  0.84293928  0.61859447    -0.61530
N1590       N  0.58355774  0.85978125  0.63145565    -0.07790
N1591       N  0.56594104  0.87275354  0.63856623    -0.60540
N1592       N  0.61177907  0.84531422  0.58372533    -0.05530
N1593       N  0.60926824  0.84834796  0.56162376    -0.61620
Mn1594     Mn  0.59503741  0.81756767  0.60072177     1.18440
C1595       C  0.61743602  0.86930740  0.55759121     0.96680
C1596       C  0.54684957  0.86174756  0.63030583     0.97340
N1597       N  0.66393248  0.77739204  0.63017929    -0.07810
N1598       N  0.67888947  0.76293470  0.62140572    -0.64120
N1599       N  0.63602326  0.78972113  0.67914170    -0.06620
N1600       N  0.63340853  0.78548459  0.70124232    -0.64800
N1601       N  0.62611584  0.77382763  0.66682336    -0.07320
N1602       N  0.61644638  0.75839572  0.68018046    -0.64390
N1603       N  0.67425158  0.79289647  0.64264830    -0.06220
N1604       N  0.69659044  0.78928828  0.64275691    -0.65080
Mn1605     Mn  0.62696851  0.77489119  0.62949561     1.10660
C1606       C  0.69923062  0.77078388  0.62902504     0.97900
C1607       C  0.62086998  0.76599799  0.70162040     0.97980
N1608       N  0.62359748  0.85980887  0.67294055    -0.07330
N1609       N  0.61539823  0.87245153  0.69034200    -0.62700
N1610       N  0.67201084  0.84497648  0.64597996    -0.06650
N1611       N  0.69438386  0.84569709  0.64595994    -0.59430
N1612       N  0.66283873  0.86224640  0.63453100    -0.07960
N1613       N  0.67997440  0.87526325  0.62635881    -0.62270
N1614       N  0.63509708  0.84235861  0.68167670    -0.06940
N1615       N  0.63506307  0.84265536  0.70416873    -0.59450
Mn1616     Mn  0.62291862  0.86306197  0.63322835     1.20190
Mn1617     Mn  0.65443838  0.81762100  0.66260039     1.10090
Cl1618     Cl  0.62482080  0.81857999  0.63148254    -0.87420
C1619       C  0.62283104  0.86128734  0.70984868     0.94910
C1620       C  0.69967583  0.86437245  0.63380833     0.94710
N1621       N  0.22546789  0.34478113  0.38052280    -0.07580
N1622       N  0.24106088  0.33102452  0.38914523    -0.59700
N1623       N  0.21020811  0.37211225  0.33239033    -0.07260
N1624       N  0.21469727  0.37486770  0.31027454    -0.61830
N1625       N  0.22512492  0.38327265  0.34477045    -0.06860
N1626       N  0.23998064  0.39389358  0.33165826    -0.59670
N1627       N  0.21062655  0.33322770  0.36841338    -0.06530
N1628       N  0.21587016  0.31116819  0.36822263    -0.62180
C1629       C  0.23479573  0.31011282  0.38152717     0.94600
C1630       C  0.23329441  0.38882278  0.31016011     0.94380
N1631       N  0.13922902  0.37840372  0.34160944    -0.07760
N1632       N  0.12395893  0.38229802  0.32489446    -0.60280
N1633       N  0.15820763  0.33140373  0.36696739    -0.05880
N1634       N  0.15693766  0.30901435  0.36484210    -0.61530
N1635       N  0.14069706  0.33982654  0.37865345    -0.07790
N1636       N  0.12700471  0.32246739  0.38462351    -0.60540
N1637       N  0.15768526  0.36921125  0.33224965    -0.05530
N1638       N  0.15573875  0.36702331  0.31004442    -0.61620
Mn1639     Mn  0.18411951  0.35140830  0.34983500     1.18440
C1640       C  0.13480087  0.37476271  0.30526653     0.96680
C1641       C  0.13748669  0.30330804  0.37559350     0.97340
N1642       N  0.22394975  0.41900357  0.38297914    -0.07810
N1643       N  0.23883495  0.43349485  0.37427548    -0.64120
N1644       N  0.20955753  0.39147989  0.43095289    -0.06620
N1645       N  0.21587452  0.39121918  0.45280548    -0.64800
N1646       N  0.22441304  0.38015700  0.41845601    -0.07320
N1647       N  0.24066720  0.37147032  0.43121931    -0.64390
N1648       N  0.20817057  0.42992180  0.39473194    -0.06220
N1649       N  0.21206659  0.45225532  0.39450085    -0.65080
Mn1650     Mn  0.22511714  0.38178597  0.38167441     1.10660
C1651       C  0.23122202  0.45421357  0.38146815     0.97900
C1652       C  0.23549190  0.37854289  0.45252438     0.97980
N1653       N  0.13922580  0.38009503  0.42099494    -0.07330
N1654       N  0.12443965  0.37424014  0.43757476    -0.62700
N1655       N  0.15504688  0.42815280  0.39575948    -0.06650
N1656       N  0.15253463  0.45047663  0.39717098    -0.59430
N1657       N  0.13856971  0.41861558  0.38356461    -0.07960
N1658       N  0.12453050  0.43515929  0.37607611    -0.62270
N1659       N  0.15652177  0.39098759  0.43060357    -0.06940
N1660       N  0.15412010  0.39266874  0.45286636    -0.59450
Mn1661     Mn  0.13774580  0.37921189  0.38126925     1.20190
Mn1662     Mn  0.18216932  0.41029028  0.41323090     1.10090
Cl1663     Cl  0.18194814  0.38069585  0.38150223    -0.87420
C1664       C  0.13415113  0.38259173  0.45735672     0.94910
C1665       C  0.13355398  0.45485198  0.38513376     0.94710
N1666       N  0.58310790  0.62768089  0.86529437    -0.07580
N1667       N  0.56590083  0.63618333  0.87796349    -0.59700
N1668       N  0.61040173  0.57955711  0.84954586    -0.07260
N1669       N  0.61014131  0.55714582  0.85100426    -0.61830
N1670       N  0.62141884  0.58895111  0.86686983    -0.06860
N1671       N  0.62898718  0.57213898  0.88062374    -0.59670
N1672       N  0.57428232  0.61625390  0.84791049    -0.06530
N1673       N  0.55183864  0.61670301  0.84824780    -0.62180
C1674       C  0.54642714  0.62905485  0.86685516     0.94600
C1675       C  0.62162618  0.55230142  0.87026681     0.94380
N1676       N  0.62529344  0.59002713  0.78162584    -0.07760
N1677       N  0.63507575  0.57610068  0.76680938    -0.60280
N1678       N  0.57612831  0.61635899  0.79486690    -0.05880
N1679       N  0.55438441  0.61627847  0.78859305    -0.61530
N1680       N  0.58852106  0.62753410  0.77980677    -0.07790
N1681       N  0.57574289  0.63548296  0.76307453    -0.60540
N1682       N  0.61318995  0.57850103  0.79662964    -0.05530
N1683       N  0.61428078  0.55624942  0.79215890    -0.61620
Mn1684     Mn  0.59322367  0.59744658  0.82244051     1.18440
C1685       C  0.62828285  0.55499619  0.77355215     0.96680
C1686       C  0.55448223  0.62863457  0.76886821     0.97340
N1687       N  0.66216940  0.62939180  0.86749703    -0.07810
N1688       N  0.67884123  0.62130814  0.88111046    -0.64120
N1689       N  0.63549588  0.67742141  0.84922621    -0.06620
N1690       N  0.63586176  0.69989641  0.85062429    -0.64800
N1691       N  0.62371648  0.66812269  0.86619286    -0.07320
N1692       N  0.61566327  0.68499109  0.87956105    -0.64390
N1693       N  0.67175050  0.64086752  0.85050265    -0.06220
N1694       N  0.69409622  0.64095300  0.85201475    -0.65080
Mn1695     Mn  0.62255831  0.62851253  0.86826343     1.10660
C1696       C  0.69877110  0.62889074  0.87098107     0.97900
C1697       C  0.62375973  0.70476141  0.86955829     0.97980
N1698       N  0.62534340  0.66448936  0.78052579    -0.07330
N1699       N  0.61608298  0.67817732  0.76512051    -0.62700
N1700       N  0.67348634  0.63899361  0.79789611    -0.06650
N1701       N  0.69563626  0.63864634  0.79291599    -0.59430
N1702       N  0.66209353  0.62658783  0.78313926    -0.07960
N1703       N  0.67595143  0.61703039  0.76826241    -0.62270
N1704       N  0.63603098  0.67639087  0.79622149    -0.06940
N1705       N  0.63445097  0.69857200  0.79178890    -0.59450
Mn1706     Mn  0.62536712  0.62720292  0.78087389     1.20190
Mn1707     Mn  0.65439336  0.65871744  0.82359632     1.10090
Cl1708     Cl  0.62383108  0.62799091  0.82409601    -0.87420
C1709       C  0.62179352  0.69942607  0.77235812     0.94910
C1710       C  0.69684020  0.62458798  0.77439766     0.94710
N1711       N  0.33810367  0.38055771  0.53343473    -0.07580
N1712       N  0.32525147  0.37141139  0.51752911    -0.59700
N1713       N  0.36153983  0.42958104  0.55033792    -0.07260
N1714       N  0.36167009  0.45192726  0.54668624    -0.61830
N1715       N  0.37413951  0.41894311  0.53500722    -0.06860
N1716       N  0.38341267  0.43377389  0.52066485    -0.59670
N1717       N  0.32547046  0.39145216  0.54854595    -0.06530
N1718       N  0.30354845  0.39038004  0.54289293    -0.62180
C1719       C  0.30371554  0.37752643  0.52351255     0.94600
C1720       C  0.37577564  0.45429964  0.52839796     0.94380
N1721       N  0.37111535  0.41914973  0.61989842    -0.07760
N1722       N  0.37960305  0.43610627  0.63281977    -0.60280
N1723       N  0.32381105  0.39161373  0.60159426    -0.05880
N1724       N  0.30134154  0.39175421  0.60263073    -0.61530
N1725       N  0.33308980  0.38003334  0.61874310    -0.07790
N1726       N  0.31614826  0.37177625  0.63188095    -0.60540
N1727       N  0.35943401  0.42844394  0.60285089    -0.05530
N1728       N  0.35966307  0.45090350  0.60359605    -0.61620
Mn1729     Mn  0.34228885  0.41038398  0.57598521     1.18440
C1730       C  0.37222679  0.45582912  0.62205352     0.96680
C1731       C  0.29646868  0.37952332  0.62141719     0.97340
N1732       N  0.41232771  0.38237387  0.53533009    -0.07810
N1733       N  0.42632480  0.39133130  0.52015371    -0.64120
N1734       N  0.38733374  0.33245690  0.54833729    -0.06620
N1735       N  0.38744315  0.31036315  0.54339595    -0.64800
N1736       N  0.37606666  0.34410989  0.53272221    -0.07320
N1737       N  0.36789991  0.33024032  0.51687969    -0.64390
N1738       N  0.42374917  0.37025932  0.55046734    -0.06220
N1739       N  0.44590884  0.37036142  0.54565835    -0.65080
Mn1740     Mn  0.37518331  0.38157168  0.53359189     1.10660
C1741       C  0.44726538  0.38386309  0.52675536     0.97900
C1742       C  0.37486616  0.30923032  0.52396897     0.97980
N1743       N  0.37487824  0.33984284  0.61861640    -0.07330
N1744       N  0.36792502  0.32259231  0.63208988    -0.62700
N1745       N  0.42237902  0.36734091  0.60318305    -0.06650
N1746       N  0.44472733  0.36644429  0.60527647    -0.59430
N1747       N  0.41254590  0.37853263  0.62027568    -0.07960
N1748       N  0.42899487  0.38579844  0.63446481    -0.62270
N1749       N  0.38659422  0.33106138  0.60130602    -0.06940
N1750       N  0.38788138  0.30864053  0.60250538    -0.59450
Mn1751     Mn  0.37284583  0.37941094  0.62115342     1.20190
Mn1752     Mn  0.40509594  0.35015337  0.57594670     1.10090
Cl1753     Cl  0.37383402  0.38035525  0.57696466    -0.87420
C1754       C  0.37631619  0.30315845  0.62157485     0.94910
C1755       C  0.44893784  0.37775841  0.62469592     0.94710
N1756       N  0.38858817  0.66866507  0.63177221    -0.07580
N1757       N  0.37528988  0.68618164  0.63834303    -0.59700
N1758       N  0.40204095  0.64096348  0.58421148    -0.07260
N1759       N  0.39950852  0.64265360  0.56200047    -0.61830
N1760       N  0.38455150  0.63064077  0.59415491    -0.06860
N1761       N  0.36944529  0.62513435  0.57777193    -0.59670
N1762       N  0.40604011  0.67693655  0.61999254    -0.06530
N1763       N  0.40512048  0.69931375  0.61834157    -0.62180
C1764       C  0.38607146  0.70524653  0.62970255     0.94600
C1765       C  0.37933458  0.63294823  0.55772043     0.94380
N1766       N  0.46885157  0.62361488  0.59120504    -0.07760
N1767       N  0.48370094  0.61485680  0.57671332    -0.60280
N1768       N  0.45882988  0.67389004  0.61723190    -0.05880
N1769       N  0.46568428  0.69543377  0.61586848    -0.61530
N1770       N  0.47427028  0.66118281  0.62749172    -0.07790
N1771       N  0.49192579  0.67361240  0.63365217    -0.60540
N1772       N  0.45397704  0.63659337  0.58050312    -0.05530
N1773       N  0.45852231  0.63724007  0.55827661    -0.61620
Mn1774     Mn  0.43011556  0.65725790  0.60052509     1.18440
C1775       C  0.47696500  0.62321934  0.55618607     0.96680
C1776       C  0.48632719  0.69489114  0.62637284     0.97340
N1777       N  0.38504331  0.58979276  0.63600888    -0.07810
N1778       N  0.37085021  0.57338236  0.62872011    -0.64120
N1779       N  0.40652444  0.61704084  0.68207510    -0.06620
N1780       N  0.40706250  0.61758309  0.70451717    -0.64800
N1781       N  0.38924120  0.62908720  0.67372761    -0.07320
N1782       N  0.37768864  0.63825342  0.69143885    -0.64390
N1783       N  0.40199806  0.57989129  0.64733741    -0.06220
N1784       N  0.39973588  0.55754509  0.64838550    -0.65080
Mn1785     Mn  0.38490140  0.62949035  0.63399924     1.10660
C1786       C  0.38036393  0.55341336  0.63703444     0.97900
C1787       C  0.38943873  0.63091644  0.71063059     0.97980
N1788       N  0.47434004  0.62482661  0.66492739    -0.07330
N1789       N  0.49183193  0.63223302  0.67688236    -0.62700
N1790       N  0.45435083  0.57668155  0.64220455    -0.06650
N1791       N  0.45932738  0.55454232  0.64331338    -0.59430
N1792       N  0.46880221  0.58727270  0.62866837    -0.07960
N1793       N  0.48359383  0.57276015  0.61988288    -0.62270
N1794       N  0.45938052  0.61460999  0.67820334    -0.06940
N1795       N  0.46653021  0.61451078  0.69970276    -0.59450
Mn1796     Mn  0.47176301  0.62414309  0.62804741     1.20190
Mn1797     Mn  0.43042638  0.59690820  0.66274740     1.10090
Cl1798     Cl  0.42862142  0.62698166  0.63143126    -0.87420
C1799       C  0.48677038  0.62570776  0.69848006     0.94910
C1800       C  0.47751987  0.55237125  0.62897835     0.94710
N1801       N  0.65790985  0.47849172  0.62984448    -0.07580
N1802       N  0.67107072  0.49519444  0.63696317    -0.59700
N1803       N  0.63266156  0.46011403  0.58232840    -0.07260
N1804       N  0.63281278  0.46370046  0.55997365    -0.61830
N1805       N  0.62065943  0.47600811  0.59286051    -0.06860
N1806       N  0.61229608  0.49086215  0.57790100    -0.59670
N1807       N  0.67001705  0.46285164  0.61910236    -0.06530
N1808       N  0.69184961  0.46877233  0.61830724    -0.62180
C1809       C  0.69221321  0.48892764  0.62984026     0.94600
C1810       C  0.61992956  0.48285542  0.55744989     0.94380
N1811       N  0.62413008  0.39075840  0.59478980    -0.07760
N1812       N  0.61761940  0.37599169  0.57853861    -0.60280
N1813       N  0.67136596  0.40969368  0.62049352    -0.05880
N1814       N  0.69376917  0.40823797  0.61960120    -0.61530
N1815       N  0.66229153  0.39289134  0.63266561    -0.07790
N1816       N  0.67921737  0.37968776  0.64073091    -0.60540
N1817       N  0.63540240  0.40765371  0.58484176    -0.05530
N1818       N  0.63706537  0.40492564  0.56261660    -0.61620
Mn1819     Mn  0.65249643  0.43496195  0.60167648     1.18440
C1820       C  0.62610099  0.38533138  0.55858622     0.96680
C1821       C  0.69870928  0.38965751  0.63215899     0.97340
N1822       N  0.58389970  0.47613337  0.63128945    -0.07810
N1823       N  0.56966893  0.49142983  0.62287068    -0.64120
N1824       N  0.61148773  0.46383962  0.68064642    -0.06620
N1825       N  0.61399999  0.46878998  0.70263733    -0.64800
N1826       N  0.62156411  0.47931970  0.66780980    -0.07320
N1827       N  0.63123273  0.49505593  0.68067021    -0.64390
N1828       N  0.57308869  0.46169784  0.64473676    -0.06220
N1829       N  0.55112161  0.46716646  0.64611608    -0.65080
Mn1830     Mn  0.62084550  0.47796318  0.63038178     1.10660
C1831       C  0.54935019  0.48575369  0.63225943     0.97900
C1832       C  0.62666937  0.48825260  0.70236948     0.97980
N1833       N  0.62271900  0.39339540  0.67376648    -0.07330
N1834       N  0.63154330  0.38035501  0.69047677    -0.62700
N1835       N  0.57409125  0.40909292  0.64769982    -0.06650
N1836       N  0.55166104  0.40845842  0.64748763    -0.59430
N1837       N  0.58329332  0.39198865  0.63599552    -0.09400
N1838       N  0.56630453  0.37918012  0.62745979    -0.62270
N1839       N  0.61122600  0.41051554  0.68320100    -0.06940
N1840       N  0.61156107  0.40942509  0.70572507    -0.59450
Mn1841     Mn  0.62298926  0.39054996  0.63433653     1.20190
Mn1842     Mn  0.59232874  0.43614187  0.66441713     1.10090
Cl1843     Cl  0.62215581  0.43462673  0.63270792    -0.87420
C1844       C  0.62410600  0.39067332  0.71030063     0.94910
C1845       C  0.54665371  0.39000589  0.63491541     0.94710
N1846       N  0.33289550  0.61288382  0.38480230    -0.07580
N1847       N  0.31530054  0.62615814  0.37811476    -0.59700
N1848       N  0.36009774  0.59654739  0.43240503    -0.07260
N1849       N  0.35793650  0.59825764  0.45466956    -0.61830
N1850       N  0.37048848  0.61448710  0.42339797    -0.06860
N1851       N  0.37550581  0.62904402  0.44044646    -0.59670
N1852       N  0.32450943  0.59506495  0.39589783    -0.06530
N1853       N  0.30215245  0.59563065  0.39697177    -0.62180
C1854       C  0.29611999  0.61483574  0.38597879     0.94600
C1855       C  0.36740754  0.61836348  0.45996569     0.94380
N1856       N  0.37440358  0.52812778  0.42264517    -0.07760
N1857       N  0.38269120  0.51316545  0.43754350    -0.60280
N1858       N  0.32601832  0.54268060  0.39557879    -0.05880
N1859       N  0.30382182  0.53885427  0.39412796    -0.61530
N1860       N  0.33766628  0.52677022  0.38473065    -0.07790
N1861       N  0.32367985  0.51166525  0.37553917    -0.60540
N1862       N  0.36268602  0.54414842  0.43326446    -0.05530
N1863       N  0.36255403  0.54055334  0.45559245    -0.61620
Mn1864     Mn  0.34337876  0.56972072  0.41427069     1.18440
C1865       C  0.37520605  0.52126497  0.45802111     0.96680
C1866       C  0.30258744  0.51960210  0.38129123     0.97340
N1867       N  0.41230757  0.61495641  0.38270909    -0.07810
N1868       N  0.42883775  0.62890361  0.39028733    -0.64120
N1869       N  0.38595092  0.59624800  0.33506533    -0.06620
N1870       N  0.38557174  0.59661032  0.31254606    -0.64800
N1871       N  0.37394584  0.61329694  0.34401609    -0.07320
N1872       N  0.36513614  0.62581364  0.32683092    -0.64390
N1873       N  0.42212449  0.59786135  0.37148094    -0.06220
N1874       N  0.44449932  0.59970963  0.37089039    -0.65080
Mn1875     Mn  0.37245700  0.61570628  0.38369099     1.10660
C1876       C  0.44880062  0.61897444  0.38241387     0.97900
C1877       C  0.37262729  0.61486797  0.30729560     0.97980
N1878       N  0.37581414  0.52747996  0.34755377    -0.07330
N1879       N  0.36750400  0.51222640  0.33311942    -0.62700
N1880       N  0.42356366  0.54482428  0.37387750    -0.06650
N1881       N  0.44575434  0.54001338  0.37401104    -0.59430
N1882       N  0.41217388  0.52938237  0.38563203    -0.07960
N1883       N  0.42619805  0.51409233  0.39439430    -0.62270
N1884       N  0.38682363  0.54359095  0.33635723    -0.06940
N1885       N  0.38640177  0.53973918  0.31410071    -0.59450
Mn1886     Mn  0.37506654  0.52726452  0.38509800     1.20190
Mn1887     Mn  0.40481850  0.57076852  0.35407140     1.10090
Cl1888     Cl  0.37396126  0.57114426  0.38428411    -0.87420
C1889       C  0.37426345  0.52018632  0.31234243     0.94910
C1890       C  0.44710921  0.52084937  0.38717415     0.94710
N1891       N  0.58314440  0.13102668  0.89902924    -0.07580
N1892       N  0.56569799  0.12291405  0.88651772    -0.59700
N1893       N  0.61107267  0.17863120  0.91399839    -0.07260
N1894       N  0.61136800  0.20102370  0.91270894    -0.61830
N1895       N  0.62220649  0.16887161  0.89683583    -0.06860
N1896       N  0.63039649  0.18549764  0.88320762    -0.59670
N1897       N  0.57449414  0.14303278  0.91622897    -0.06530
N1898       N  0.55204702  0.14339118  0.91588681    -0.62180
C1899       C  0.54634929  0.13073176  0.89767693     0.94600
C1900       C  0.62325069  0.20545230  0.89367454     0.94380
N1901       N  0.62588919  0.16990959  0.98177856    -0.07760
N1902       N  0.63475030  0.18432763  0.99666508    -0.60280
N1903       N  0.57612255  0.14457010  0.96930318    -0.05880
N1904       N  0.55438499  0.14524057  0.97578719    -0.61530
N1905       N  0.58845102  0.13334466  0.98433645    -0.07790
N1906       N  0.57558517  0.12561824  0.00101383    -0.60540
N1907       N  0.61377310  0.18094716  0.96637859    -0.05530
N1908       N  0.61404233  0.20323835  0.97043289    -0.61620
Mn1909     Mn  0.59363610  0.16186771  0.94130350     1.18440
C1910       C  0.62757464  0.20512790  0.98919797     0.96680
C1911       C  0.55446321  0.13320083  0.99573615     0.97340
N1912       N  0.66273250  0.12715389  0.89769243    -0.07810
N1913       N  0.67988024  0.13517848  0.88462066    -0.64120
N1914       N  0.63504924  0.08033438  0.91682354    -0.06620
N1915       N  0.63597767  0.05788028  0.91558690    -0.64800
N1916       N  0.62372655  0.08946486  0.89941382    -0.07320
N1917       N  0.61636706  0.07243074  0.88598254    -0.64390
N1918       N  0.67179437  0.11556254  0.91496700    -0.06220
N1919       N  0.69420674  0.11535689  0.91417262    -0.65080
Mn1920     Mn  0.62294044  0.12911204  0.89627336     1.10660
C1921       C  0.69942328  0.12756732  0.89549887     0.97900
C1922       C  0.62440505  0.05287539  0.89651507     0.97980
N1923       N  0.62421058  0.09546360  0.98506267    -0.07330
N1924       N  0.61631094  0.08319963  0.00220813    -0.62700
N1925       N  0.67310293  0.11823758  0.96754491    -0.06650
N1926       N  0.69489659  0.11599836  0.97321986    -0.59430
N1927       N  0.66235552  0.13143433  0.98226749    -0.07960
N1928       N  0.67648946  0.13872196  0.99815616    -0.62270
N1929       N  0.63499960  0.08239688  0.97026543    -0.06940
N1930       N  0.63514765  0.06079383  0.97739448    -0.59450
Mn1931     Mn  0.62531344  0.13264178  0.98355034     1.20190
Mn1932     Mn  0.65374257  0.09888773  0.94224214     1.10090
Cl1933     Cl  0.62388249  0.13055904  0.94018403    -0.87420
C1934       C  0.62329440  0.06166770  0.99745344     0.94910
C1935       C  0.69673223  0.12913077  0.99222982     0.94710
N1936       N  0.15948491  0.98084193  0.63054206    -0.07580
N1937       N  0.17263733  0.99780213  0.63715803    -0.59700
N1938       N  0.13488956  0.96332850  0.58204784    -0.07260
N1939       N  0.13500913  0.96697235  0.55969429    -0.61830
N1940       N  0.12289627  0.97919949  0.59265244    -0.06860
N1941       N  0.11430079  0.99393010  0.57770611    -0.59670
N1942       N  0.17149698  0.96531489  0.61949058    -0.06530
N1943       N  0.19319386  0.97153436  0.61803262    -0.62180
C1944       C  0.19356235  0.99181624  0.62927117     0.94600
C1945       C  0.12172560  0.98586554  0.55719177     0.94380
N1946       N  0.12575231  0.89353258  0.59318135    -0.07760
N1947       N  0.11861503  0.87936223  0.57668157    -0.60280
N1948       N  0.17270836  0.91238773  0.62031708    -0.05880
N1949       N  0.19506330  0.91095709  0.61917913    -0.61530
N1950       N  0.16370907  0.89483453  0.63139021    -0.07790
N1951       N  0.18077012  0.88087517  0.63795718    -0.60540
N1952       N  0.13733144  0.91041765  0.58352980    -0.05530
N1953       N  0.13865602  0.90812711  0.56117203    -0.61620
Mn1954     Mn  0.15420721  0.93773441  0.60132534     1.18440
C1955       C  0.12710680  0.88887791  0.55683866     0.96680
C1956       C  0.20028593  0.89134385  0.62985106     0.97340
N1957       N  0.08532479  0.97958916  0.63014019    -0.07810
N1958       N  0.07151645  0.99474619  0.62082041    -0.64120
N1959       N  0.11056120  0.96530437  0.67919301    -0.06620
N1960       N  0.11053578  0.96974123  0.70134071    -0.64800
N1961       N  0.12172482  0.98114825  0.66779300    -0.07320
N1962       N  0.12966151  0.99684681  0.68195389    -0.64390
N1963       N  0.07369313  0.96423107  0.64170481    -0.06220
N1964       N  0.05147189  0.96878857  0.64055771    -0.65080
Mn1965     Mn  0.12235605  0.98071368  0.63029755     1.10660
C1966       C  0.05042445  0.98785786  0.62713554     0.97900
C1967       C  0.12254845  0.98940198  0.70279890     0.97980
N1968       N  0.12304799  0.89559148  0.67213888    -0.07330
N1969       N  0.13201088  0.88333997  0.68941827    -0.62700
N1970       N  0.07480886  0.91124269  0.64452686    -0.06650
N1971       N  0.05243406  0.90974674  0.64507349    -0.59430
N1972       N  0.08441741  0.89370848  0.63384332    -0.07960
N1973       N  0.06774401  0.87966660  0.62677058    -0.62270
N1974       N  0.11103216  0.91269477  0.68089656    -0.06940
N1975       N  0.11148610  0.91251655  0.70338815    -0.59450
Mn1976     Mn  0.12417629  0.89268522  0.63268072     1.20190
Mn1977     Mn  0.09231909  0.93819750  0.66168681     1.10090
Cl1978     Cl  0.12323181  0.93706301  0.63146237    -0.87420
C1979       C  0.12450162  0.89434029  0.70893143     0.94910
C1980       C  0.04790992  0.89018167  0.63418012     0.94710
N1981       N  0.11845621  0.66377603  0.98473265    -0.07580
N1982       N  0.12741938  0.67750834  0.00018823    -0.59700
N1983       N  0.07093881  0.63814372  0.96726492    -0.07260
N1984       N  0.04911022  0.63912478  0.97347494    -0.61830
N1985       N  0.08253626  0.62539214  0.98170263    -0.06860
N1986       N  0.06908507  0.61685495  0.99753715    -0.59670
N1987       N  0.10759370  0.67564739  0.96903045    -0.06530
N1988       N  0.10870034  0.69780771  0.97341172    -0.62180
C1989       C  0.12146148  0.69869407  0.99274001     0.94600
C1990       C  0.04836217  0.62561545  0.99246297     0.94380
N1991       N  0.08267517  0.62999979  0.89698121    -0.07760
N1992       N  0.06593288  0.62235135  0.88324047    -0.60280
N1993       N  0.10839434  0.67752284  0.91645016    -0.05880
N1994       N  0.10798390  0.70000897  0.91627929    -0.61530
N1995       N  0.12039226  0.66908243  0.89915649    -0.07790
N1996       N  0.12831303  0.68664871  0.88661131    -0.60540
N1997       N  0.07297802  0.64069509  0.91447839    -0.05530
N1998       N  0.05061304  0.64058692  0.91331211    -0.61620
Mn1999     Mn  0.08980288  0.65816541  0.94158670     1.18440
C2000       C  0.04601995  0.62930606  0.89401543     0.96680
C2001       C  0.12027978  0.70584721  0.89781523     0.97340
N2002       N  0.12023939  0.58924234  0.98187681    -0.07810
N2003       N  0.11242816  0.57476501  0.99729078    -0.64120
N2004       N  0.16895769  0.61647537  0.97006803    -0.06620
N2005       N  0.19053235  0.61605346  0.97701252    -0.64800
N2006       N  0.15613634  0.62743044  0.98493458    -0.07320
N2007       N  0.16848413  0.63510482  0.00201488    -0.64390
N2008       N  0.13294973  0.57853183  0.96671295    -0.06220
N2009       N  0.13442531  0.55644748  0.97163102    -0.65080
Mn2010     Mn  0.11927443  0.62643759  0.98365467     1.10660
C2011       C  0.12125521  0.55437858  0.99062849     0.97900
C2012       C  0.18984577  0.62784958  0.99706284     0.97980
N2013       N  0.16252205  0.62888525  0.89947534    -0.07330
N2014       N  0.18018720  0.63633963  0.88672033    -0.62700
N2015       N  0.13648520  0.58039996  0.91418629    -0.06650
N2016       N  0.13845602  0.55809582  0.91197253    -0.59430
N2017       N  0.12521685  0.58981791  0.89692932    -0.07960
N2018       N  0.11910063  0.57309842  0.88249010    -0.62270
N2019       N  0.17097379  0.61766516  0.91726195    -0.06940
N2020       N  0.19334513  0.61731867  0.91724358    -0.59450
Mn2021     Mn  0.12269263  0.62949452  0.89621353     1.20190
Mn2022     Mn  0.15245582  0.59821054  0.94185985     1.10090
Cl2023     Cl  0.12105474  0.62807671  0.94049250    -0.87420
C2024       C  0.19936555  0.62888902  0.89843508     0.94910
C2025       C  0.12769895  0.55337903  0.89234734     0.94710
N2026       N  0.88535177  0.58881363  0.13618855    -0.07580
N2027       N  0.87229853  0.57176965  0.12819146    -0.59700
N2028       N  0.90182649  0.61674846  0.18381706    -0.07260
N2029       N  0.90064532  0.61785717  0.20628639    -0.61830
N2030       N  0.88501274  0.62830412  0.17384869    -0.06860
N2031       N  0.87200610  0.63778286  0.19027609    -0.59670
N2032       N  0.90203423  0.57961104  0.14854517    -0.06530
N2033       N  0.90074546  0.55717072  0.14938732    -0.62180
C2034       C  0.88229266  0.55220116  0.13691761     0.94600
C2035       C  0.88213982  0.63080561  0.21039096     0.94380
N2036       N  0.96970123  0.62829390  0.17143338    -0.07760
N2037       N  0.98510944  0.63821884  0.18422940    -0.60280
N2038       N  0.95512065  0.57871644  0.14796133    -0.05880
N2039       N  0.96187375  0.55703595  0.14973305    -0.61530
N2040       N  0.96944561  0.59025038  0.13507264    -0.07790
N2041       N  0.98586229  0.57693370  0.12737763    -0.60540
N2042       N  0.95493865  0.61713576  0.18410061    -0.05530
N2043       N  0.96046457  0.61871539  0.20610992    -0.61620
Mn2044     Mn  0.92830538  0.59776635  0.16645887     1.18440
C2045       C  0.97936565  0.63226174  0.20584401     0.96680
C2046       C  0.98114657  0.55634965  0.13664703     0.97340
N2047       N  0.88548110  0.66819371  0.13221269    -0.07810
N2048       N  0.87133302  0.68523643  0.13837029    -0.64120
N2049       N  0.90352059  0.64093364  0.08545902    -0.06620
N2050       N  0.90238299  0.64280142  0.06313127    -0.64800
N2051       N  0.88559869  0.63020912  0.09411261    -0.07320
N2052       N  0.87156093  0.62495954  0.07667696    -0.64390
N2053       N  0.90325368  0.67720267  0.12150046    -0.06220
N2054       N  0.90170061  0.69956915  0.12008801    -0.65080
Mn2055     Mn  0.88339668  0.62869268  0.13402769     1.10660
C2056       C  0.88192917  0.70477896  0.13052001     0.97900
C2057       C  0.88255369  0.63323347  0.05735986     0.97980
N2058       N  0.97017057  0.62655434  0.09740399    -0.07330
N2059       N  0.98573025  0.61757055  0.08379113    -0.62700
N2060       N  0.95635719  0.67657268  0.12297189    -0.06650
N2061       N  0.96209778  0.69854078  0.12432563    -0.59430
N2062       N  0.97101607  0.66392936  0.13428256    -0.07960
N2063       N  0.98673346  0.67663031  0.14384528    -0.62270
N2064       N  0.95556538  0.63893604  0.08568799    -0.06940
N2065       N  0.96086262  0.63882718  0.06362364    -0.59450
Mn2066     Mn  0.97018612  0.62710915  0.13444939     1.20190
Mn2067     Mn  0.92957873  0.65862166  0.10389442     1.10090
Cl2068     Cl  0.92710008  0.62793906  0.13470793    -0.87420
C2069       C  0.97963239  0.62512525  0.06271685     0.94910
C2070       C  0.98121341  0.69816703  0.13768503     0.94710
N2071       N  0.88837910  0.16811944  0.63051103    -0.07580
N2072       N  0.87556405  0.18550722  0.63846321    -0.59700
N2073       N  0.90510912  0.13998404  0.58301430    -0.07260
N2074       N  0.90344064  0.14041912  0.56057270    -0.61830
N2075       N  0.88766152  0.12928112  0.59272658    -0.06860
N2076       N  0.87365876  0.12200007  0.57613067    -0.59670
N2077       N  0.90558963  0.17678852  0.61862152    -0.06530
N2078       N  0.90494821  0.19924844  0.61822716    -0.62180
C2079       C  0.88637238  0.20491180  0.63050582     0.94600
C2080       C  0.88393756  0.12937508  0.55622174     0.94380
N2081       N  0.97357427  0.12673841  0.59543021    -0.07760
N2082       N  0.98951992  0.11759256  0.58241628    -0.60280
N2083       N  0.95830583  0.17612127  0.61951655    -0.05880
N2084       N  0.96395820  0.19804249  0.61861462    -0.61530
N2085       N  0.97332319  0.16450696  0.63156503    -0.07790
N2086       N  0.98948633  0.17804044  0.63924907    -0.60540
N2087       N  0.95855121  0.13792383  0.58299486    -0.05530
N2088       N  0.96416315  0.13670681  0.56096846    -0.61620
Mn2089     Mn  0.93175188  0.15783830  0.60073648     1.18440
C2090       C  0.98352438  0.12361782  0.56092970     0.96680
C2091       C  0.98327759  0.19893523  0.63138918     0.97340
N2092       N  0.88740758  0.08884218  0.63429935    -0.07810
N2093       N  0.87433423  0.07179154  0.62631996    -0.64120
N2094       N  0.90493098  0.11654007  0.68150053    -0.06620
N2095       N  0.90378077  0.11607810  0.70392663    -0.64800
N2096       N  0.88758100  0.12781304  0.67231180    -0.07320
N2097       N  0.87402477  0.13522779  0.68940104    -0.64390
N2098       N  0.90457887  0.07968304  0.64590394    -0.06220
N2099       N  0.90376509  0.05723990  0.64615499    -0.65080
Mn2100     Mn  0.88583105  0.12856004  0.63247837     1.10660
C2101       C  0.88511342  0.05219887  0.63400478     0.97900
C2102       C  0.88453264  0.12735879  0.70909792     0.97980
N2103       N  0.97236985  0.12850788  0.66955873    -0.07330
N2104       N  0.98788863  0.13730546  0.68316079    -0.62700
N2105       N  0.95716884  0.07889201  0.64482287    -0.06650
N2106       N  0.96106986  0.05653795  0.64338808    -0.59430
N2107       N  0.97257822  0.09032051  0.63320437    -0.07960
N2108       N  0.98715474  0.07622126  0.62337229    -0.62270
N2109       N  0.95711013  0.11711116  0.68140515    -0.06940
N2110       N  0.96199735  0.11765033  0.70352829    -0.59450
Mn2111     Mn  0.97325432  0.12750271  0.63251386     1.20190
Mn2112     Mn  0.93084344  0.09787882  0.66355664     1.10090
Cl2113     Cl  0.92976211  0.12792677  0.63218047    -0.87420
C2114       C  0.98114702  0.13062794  0.70431955     0.94910
C2115       C  0.97982018  0.05515062  0.62967625     0.94710
N2116       N  0.58816534  0.98167937  0.13712655    -0.07580
N2117       N  0.57545558  0.99787370  0.12780929    -0.59700
N2118       N  0.61160285  0.96309603  0.18577253    -0.07260
N2119       N  0.61188795  0.96675777  0.20813013    -0.61830
N2120       N  0.62434178  0.97818420  0.17511630    -0.06860
N2121       N  0.63370746  0.99245159  0.18980512    -0.59670
N2122       N  0.57536519  0.96625681  0.14721853    -0.06530
N2123       N  0.55343944  0.97169611  0.14509069    -0.62180
C2124       C  0.55379020  0.99139630  0.13258976     0.94600
C2125       C  0.62610864  0.98493760  0.21039313     0.94380
N2126       N  0.61964971  0.89321985  0.17519509    -0.07760
N2127       N  0.62637638  0.87939616  0.19235773    -0.60280
N2128       N  0.57340943  0.91303891  0.14676184    -0.05880
N2129       N  0.55095928  0.91261951  0.14656288    -0.61530
N2130       N  0.58244549  0.89532031  0.13582427    -0.07790
N2131       N  0.56536329  0.88223154  0.12801273    -0.60540
N2132       N  0.60851107  0.91077177  0.18419620    -0.05530
N2133       N  0.60753590  0.90947784  0.20659020    -0.61620
Mn2134     Mn  0.59195200  0.93811988  0.16605927     1.18440
C2135       C  0.61831917  0.88997634  0.21194780     0.96680
C2136       C  0.54585332  0.89355312  0.13499488     0.97340
N2137       N  0.66219863  0.97672476  0.13880269    -0.07810
N2138       N  0.67624286  0.99151589  0.14804668    -0.64120
N2139       N  0.63671523  0.96499093  0.08845910    -0.06620
N2140       N  0.63637518  0.97102238  0.06650804    -0.64800
N2141       N  0.62575743  0.98022523  0.10090039    -0.07320
N2142       N  0.61733980  0.99659156  0.08794069    -0.64390
N2143       N  0.67349026  0.96191378  0.12618379    -0.06220
N2144       N  0.69563793  0.96668189  0.12614036    -0.65080
Mn2145     Mn  0.62524817  0.97960272  0.13801707     1.10660
C2146       C  0.69708085  0.98518572  0.14011707     0.97900
C2147       C  0.62391655  0.99076970  0.06651962     0.97980
N2148       N  0.62467448  0.89422478  0.09577835    -0.07330
N2149       N  0.61889222  0.88016112  0.07859104    -0.62700
N2150       N  0.67165727  0.90929474  0.12388974    -0.06650
N2151       N  0.69405532  0.90763650  0.12474234    -0.59430
N2152       N  0.66156151  0.89253540  0.13531360    -0.07960
N2153       N  0.67777870  0.87895512  0.14432471    -0.62270
N2154       N  0.63609721  0.91166052  0.08696302    -0.06940
N2155       N  0.63821815  0.91000533  0.06463002    -0.59450
Mn2156     Mn  0.62201066  0.89204519  0.13551686     1.20190
Mn2157     Mn  0.65461693  0.93683406  0.10604474     1.10090
Cl2158     Cl  0.62338472  0.93633652  0.13634127    -0.87420
C2159       C  0.62780670  0.89039298  0.05921503     0.94910
C2160       C  0.69795853  0.88881270  0.13731467     0.94710
C2161       C  0.00699867  0.62473848  0.00344266    -0.10620
C2162       C  0.03015827  0.62631926  0.00977476     0.05580
C2163       C  0.03603223  0.62830497  0.03321538    -0.04380
C2164       C  0.01908740  0.62726347  0.04972908    -0.08830
C2165       C  0.99603957  0.62509915  0.04369355     0.04700
C2166       C  0.98980266  0.62426717  0.02034342    -0.03860
Br2167     Br  0.95847257  0.62148749  0.01086612    -0.03550
H2168       H  0.00235612  0.62348655  0.98548055     0.08610
H2169       H  0.02405230  0.62894362  0.06757933     0.06630
Br2170     Br  0.06647047  0.63437402  0.04452520    -0.03980
C2171       C  0.00949083  0.99725376  0.63569422    -0.10620
C2172       C  0.02972317  0.00208864  0.62339436     0.05580
C2173       C  0.03051302  0.02214957  0.60967713    -0.04380
C2174       C  0.01230087  0.03743494  0.61004908    -0.08830
C2175       C  0.99363262  0.03437342  0.62483440     0.04700
C2176       C  0.99146588  0.01329407  0.63665531    -0.03860
Br2177     Br  0.96531403  0.00571893  0.65518037    -0.03550
H2178       H  0.00824393  0.98167367  0.64580260     0.08610
H2179       H  0.01379945  0.05298176  0.60000081     0.06630
Br2180     Br  0.05640319  0.03216564  0.59180661    -0.03980
C2181       C  0.62342514  0.01993132  0.00776395    -0.10620
C2182       C  0.62256685  0.04309407  0.01465337     0.05580
C2183       C  0.62180849  0.04831449  0.03835038    -0.04380
C2184       C  0.62176817  0.03073784  0.05429718    -0.08830
C2185       C  0.62282001  0.00765402  0.04768938     0.04700
C2186       C  0.62348250  0.00214381  0.02413654    -0.03860
Br2187     Br  0.62339200  0.97097914  0.01350637    -0.03550
H2188       H  0.62392362  0.01567201  0.98966260     0.08610
H2189       H  0.62165995  0.03543888  0.07229659     0.06630
Br2190     Br  0.62272605  0.07873826  0.05131275    -0.03980
C2191       C  0.38181532  0.64725915  0.51733718    -0.10620
C2192       C  0.37124016  0.63209736  0.53329311     0.05580
C2193       C  0.35682590  0.61505024  0.52456262    -0.04380
C2194       C  0.35491682  0.61222163  0.50067525    -0.08830
C2195       C  0.36739760  0.62586630  0.48469215     0.04700
C2196       C  0.38017717  0.64424347  0.49342654    -0.03860
Br2197     Br  0.39690322  0.66486053  0.47396617    -0.03550
H2198       H  0.39257873  0.66104863  0.52348053     0.08610
H2199       H  0.34421983  0.59832501  0.49469628     0.06630
Br2200     Br  0.34094801  0.59388962  0.54413922    -0.03980
C2201       C  0.51717074  0.54123243  0.63431576    -0.10620
C2202       C  0.49457378  0.53409028  0.63091912     0.05580
C2203       C  0.48949188  0.51054266  0.62986156    -0.04380
C2204       C  0.50750609  0.49452855  0.63083552    -0.08830
C2205       C  0.53028328  0.50202434  0.63293824     0.04700
C2206       C  0.53491233  0.52559862  0.63554680    -0.03860
Br2207     Br  0.56471256  0.53806775  0.64226967    -0.03550
H2208       H  0.52115828  0.55928660  0.63633231     0.08610
H2209       H  0.50379916  0.47639548  0.62941797     0.06630
Br2210     Br  0.45871725  0.49977091  0.62604387    -0.03980
C2211       C  0.48375059  0.40168627  0.62374617    -0.10620
C2212       C  0.47315971  0.38161443  0.63156955     0.05580
C2213       C  0.48742447  0.36283576  0.63784781    -0.04380
C2214       C  0.51157820  0.36482575  0.63743996    -0.08830
C2215       C  0.52208842  0.38507867  0.62971868     0.04700
C2216       C  0.50772056  0.40340970  0.62251861    -0.03860
Br2217     Br  0.52009227  0.43102095  0.60950212    -0.03550
H2218       H  0.47330717  0.41565086  0.61716734     0.08610
H2219       H  0.52208292  0.35072260  0.64358702     0.06630
Br2220     Br  0.47449628  0.33384062  0.64650937    -0.03980
C2221       C  0.35704201  0.48718491  0.50983513    -0.10620
C2222       C  0.37737756  0.47532175  0.51472240     0.05580
C2223       C  0.39774308  0.48126230  0.50324033    -0.04380
C2224       C  0.39705068  0.49741393  0.48549220    -0.08830
C2225       C  0.37627733  0.50788586  0.47930051     0.04700
C2226       C  0.35623757  0.50321844  0.49207786    -0.03860
Br2227     Br  0.32653792  0.51513943  0.48396717    -0.03550
H2228       H  0.34124312  0.48251512  0.51845761     0.08610
H2229       H  0.41257085  0.50120127  0.47597670     0.06630
Br2230     Br  0.42666690  0.46754466  0.51106751    -0.03980
C2231       C  0.36948623  0.49016641  0.64828933    -0.10620
C2232       C  0.37686091  0.48041709  0.62749947     0.05580
C2233       C  0.38314246  0.49548468  0.60939899    -0.04380
C2234       C  0.38135064  0.51938432  0.61191662    -0.08830
C2235       C  0.37389159  0.52919900  0.63254495     0.04700
C2236       C  0.36849330  0.51425857  0.65103092    -0.03860
Br2237     Br  0.36019067  0.52619231  0.68060503    -0.03550
H2238       H  0.36402720  0.47910992  0.66222900     0.08610
H2239       H  0.38726349  0.53040314  0.59811980     0.06630
Br2240     Br  0.39570035  0.48432519  0.58100311    -0.03980
C2241       C  0.64614045  0.53751427  0.73946783    -0.10620
C2242       C  0.63219676  0.53454557  0.75893959     0.05580
C2243       C  0.62041710  0.51357749  0.76168399    -0.04380
C2244       C  0.62015113  0.49778054  0.74355086    -0.08830
C2245       C  0.63169347  0.50237102  0.72281200     0.04700
C2246       C  0.64602260  0.52182519  0.72149860    -0.03860
Br2247     Br  0.66532014  0.52907669  0.69561624    -0.03550
H2248       H  0.65634348  0.55289592  0.73747687     0.08610
H2249       H  0.60985702  0.48243609  0.74528592     0.06630
Br2250     Br  0.60382140  0.50557520  0.78904631    -0.03980
C2251       C  0.54270276  0.62115022  0.72959943    -0.10620
C2252       C  0.53633492  0.62780505  0.75178936     0.05580
C2253       C  0.51340940  0.63330843  0.75671267    -0.04380
C2254       C  0.49715101  0.63241606  0.73913992    -0.08830
C2255       C  0.50369028  0.62602251  0.71684461     0.04700
C2256       C  0.52667064  0.62004911  0.71217950    -0.03860
Br2257     Br  0.53737823  0.60887448  0.68293098    -0.03550
H2258       H  0.56029707  0.61637552  0.72582227     0.08610
H2259       H  0.47961940  0.63734219  0.74271306     0.06630
Br2260     Br  0.50405219  0.64360414  0.78648617    -0.03980
C2261       C  0.26111983  0.47498441  0.36043232    -0.10620
C2262       C  0.24496941  0.47516004  0.37831695     0.05580
C2263       C  0.24537081  0.49324427  0.39442271    -0.04380
C2264       C  0.26349632  0.50887654  0.39391496    -0.08830
C2265       C  0.28129146  0.50666861  0.37773637     0.04700
C2266       C  0.27928317  0.49037051  0.36006053    -0.03860
Br2267     Br  0.30095770  0.48761086  0.33532789    -0.03550
H2268       H  0.26037030  0.46189711  0.34732525     0.08610
H2269       H  0.26449078  0.52175584  0.40727915     0.06630
Br2270     Br  0.22340705  0.49650518  0.41883590    -0.03980
C2271       C  0.24530931  0.38022480  0.49427807    -0.10620
C2272       C  0.25219905  0.37684635  0.47134786     0.05580
C2273       C  0.27563518  0.37260304  0.46647810    -0.04380
C2274       C  0.29122035  0.37160038  0.48418564    -0.08830
C2275       C  0.28476684  0.37573425  0.50696405     0.04700
C2276       C  0.26145256  0.37978088  0.51215825    -0.03860
Br2277     Br  0.25063200  0.38421384  0.54299697    -0.03550
H2278       H  0.22742579  0.38339759  0.49826798     0.08610
H2279       H  0.30901099  0.36870868  0.47962604     0.06630
Br2280     Br  0.28932979  0.37026542  0.43631212    -0.03980
C2281       C  0.54212484  0.72533982  0.61895763    -0.10620
C2282       C  0.53671794  0.74722534  0.62722475     0.05580
C2283       C  0.51400790  0.75270085  0.63335171    -0.04380
C2284       C  0.49723755  0.73559436  0.63237722    -0.08830
C2285       C  0.50308934  0.71334038  0.62516117     0.04700
C2286       C  0.52552629  0.70851284  0.61756540    -0.03860
Br2287     Br  0.53447404  0.67974741  0.60391196    -0.03550
H2288       H  0.55940517  0.72133693  0.61329483     0.08610
H2289       H  0.47989563  0.73942646  0.63792004     0.06630
Br2290     Br  0.50559422  0.78257867  0.64443196    -0.03980
C2291       C  0.63041797  0.75602572  0.74177365    -0.10620
C2292       C  0.61647361  0.75244115  0.72249309     0.05580
C2293       C  0.60077659  0.73411177  0.72265307    -0.04380
C2294       C  0.60150483  0.71815628  0.74045043    -0.08830
C2295       C  0.61759025  0.72003945  0.75824551     0.04700
C2296       C  0.63112799  0.74004135  0.75966751    -0.03860
Br2297     Br  0.65245462  0.74594843  0.78403836    -0.03550
H2298       H  0.64206909  0.77045428  0.74224564     0.08610
H2299       H  0.59021099  0.70345320  0.73964100     0.06630
Br2300     Br  0.57839859  0.72922430  0.69895721    -0.03980
C2301       C  0.26226941  0.25121827  0.38347753    -0.10620
C2302       C  0.28530934  0.25763667  0.38102046     0.05580
C2303       C  0.29102356  0.28080393  0.37704541    -0.04380
C2304       C  0.27400915  0.29724793  0.37748552    -0.08830
C2305       C  0.25113136  0.29120770  0.38104917     0.04700
C2306       C  0.24498855  0.26797848  0.38332723    -0.03860
Br2307     Br  0.21375048  0.25856179  0.38724964    -0.03550
H2308       H  0.25781635  0.23334217  0.38598750     0.08610
H2309       H  0.27875174  0.31499450  0.37452045     0.06630
Br2310     Br  0.32128544  0.29153916  0.36923611    -0.03980
C2311       C  0.35369083  0.26488715  0.48210232    -0.10620
C2312       C  0.37450158  0.25475078  0.47540073     0.05580
C2313       C  0.39502829  0.26133300  0.48623928    -0.04380
C2314       C  0.39445674  0.27804735  0.50334375    -0.08830
C2315       C  0.37381410  0.28886037  0.50934068     0.04700
C2316       C  0.35322590  0.28189633  0.49900809    -0.03860
Br2317     Br  0.32423370  0.29510305  0.50750666    -0.03550
H2318       H  0.33787418  0.25997758  0.47374915     0.08610
H2319       H  0.41043195  0.28375617  0.51084923     0.06630
Br2320     Br  0.42464543  0.25075391  0.47617535    -0.03980
C2321       C  0.35609535  0.14219490  0.26683334    -0.10620
C2322       C  0.37153221  0.13196786  0.28272203     0.05580
C2323       C  0.38871735  0.11747745  0.27404219    -0.04380
C2324       C  0.39119116  0.11491941  0.25020985    -0.08830
C2325       C  0.37704604  0.12676422  0.23418904     0.04700
C2326       C  0.35870491  0.13980834  0.24292435    -0.03860
Br2327     Br  0.33734141  0.15556229  0.22341583    -0.03550
H2328       H  0.34225380  0.15302527  0.27299279     0.08610
H2329       H  0.40514359  0.10412072  0.24428132     0.06630
Br2330     Br  0.41056453  0.10228031  0.29347630    -0.03980
C2331       C  0.51354510  0.00275022  0.14103203    -0.10620
C2332       C  0.53359583  0.00615147  0.12810717     0.05580
C2333       C  0.53468903  0.02512886  0.11297722    -0.04380
C2334       C  0.51716404  0.04145510  0.11309336    -0.08830
C2335       C  0.49822071  0.03938168  0.12783303     0.04700
C2336       C  0.49583182  0.01904511  0.14097295    -0.03860
Br2337     Br  0.46988854  0.01263043  0.16031258    -0.03550
H2338       H  0.51209919  0.98795097  0.15223793     0.08610
H2339       H  0.51888845  0.05641089  0.10213233     0.06630
Br2340     Br  0.55954595  0.03043876  0.09185264    -0.03980
C2341       C  0.52107008  0.12489504  0.05021792    -0.10620
C2342       C  0.49858386  0.12980574  0.04328543     0.05580
C2343       C  0.49426512  0.13531058  0.02013430    -0.04380
C2344       C  0.51267419  0.13620710  0.00461163    -0.08830
C2345       C  0.53523626  0.13165656  0.01194106     0.04700
C2346       C  0.53927282  0.12622504  0.03524443    -0.03860
Br2347     Br  0.56888893  0.12251330  0.04960267    -0.03550
H2348       H  0.52504308  0.12099557  0.06796614     0.08610
H2349       H  0.50934855  0.14068105  0.98689344     0.06630
Br2350     Br  0.46394175  0.14106052  0.00871191    -0.03980
C2351       C  0.37667245  0.64027294  0.27240678    -0.10620
C2352       C  0.36788586  0.62027530  0.28264057     0.05580
C2353       C  0.35983111  0.60267536  0.26797931    -0.04380
C2354       C  0.36053784  0.60520463  0.24396472    -0.08830
C2355       C  0.36931032  0.62510740  0.23368522     0.04700
C2356       C  0.37713127  0.64285960  0.24825929    -0.03860
Br2357     Br  0.38845145  0.67109727  0.23570445    -0.03550
H2358       H  0.38375065  0.65364864  0.28313857     0.08610
H2359       H  0.35316944  0.59194330  0.23327235     0.06630
Br2360     Br  0.34677930  0.57490774  0.28002385    -0.03980
C2361       C  0.23140506  0.62782982  0.00692545    -0.10620
C2362       C  0.20836285  0.62809963  0.01409462     0.05580
C2363       C  0.20323267  0.62788007  0.03782779    -0.04380
C2364       C  0.22086393  0.62742598  0.05359301    -0.08830
C2365       C  0.24386630  0.62713581  0.04668757     0.04700
C2366       C  0.24922625  0.62753821  0.02308855    -0.03860
Br2367     Br  0.28015595  0.62915971  0.01210380    -0.03550
H2368       H  0.23553751  0.62814990  0.98877192     0.08610
H2369       H  0.21631296  0.62675225  0.07163819     0.06630
Br2370     Br  0.17288304  0.62654158  0.05093525    -0.03980
C2371       C  0.38959454  0.26234274  0.61802910    -0.10620
C2372       C  0.37456380  0.27841236  0.62865133     0.05580
C2373       C  0.35765725  0.26983974  0.64350013    -0.04380
C2374       C  0.35536706  0.24601610  0.64643760    -0.08830
C2375       C  0.36949683  0.22982482  0.63475688     0.04700
C2376       C  0.38722809  0.23845101  0.62088574    -0.03860
Br2377     Br  0.40827394  0.21878263  0.60485632    -0.03550
H2378       H  0.40313108  0.26833303  0.60678964     0.08610
H2379       H  0.34172502  0.24022189  0.65764182     0.06630
Br2380     Br  0.33619457  0.28942994  0.65912181    -0.03980
C2381       C  0.35741511  0.15159687  0.52071809    -0.10620
C2382       C  0.37191294  0.13636556  0.53259213     0.05580
C2383       C  0.38525564  0.12078774  0.51958900    -0.04380
C2384       C  0.38449310  0.12118010  0.49536404    -0.08830
C2385       C  0.36984085  0.13639962  0.48359941     0.04700
C2386       C  0.35637940  0.15177173  0.49665593    -0.03860
Br2387     Br  0.33632611  0.17361982  0.48215054    -0.03550
H2388       H  0.34597108  0.16276382  0.53029249     0.08610
H2389       H  0.39581047  0.10997695  0.48569968     0.06630
Br2390     Br  0.40405308  0.09809762  0.53435293    -0.03980
C2391       C  0.22471228  0.04724730  0.62085362    -0.10620
C2392       C  0.24720880  0.04096631  0.62631852     0.05580
C2393       C  0.25256227  0.01789920  0.63118343    -0.04380
C2394       C  0.23492040  0.00163681  0.63166634    -0.08830
C2395       C  0.21218631  0.00836440  0.62731215     0.04700
C2396       C  0.20728657  0.03124892  0.62105237    -0.03860
Br2397     Br  0.17756077  0.04188252  0.61124244    -0.03550
H2398       H  0.22061118  0.06484394  0.61625797     0.08610
H2399       H  0.23881120  0.98396215  0.63608262     0.06630
Br2400     Br  0.28310608  0.00829803  0.63871425    -0.03980
C2401       C  0.47812917  0.29504220  0.37100149    -0.10620
C2402       C  0.49962868  0.28954193  0.38013021     0.05580
C2403       C  0.50388290  0.26685041  0.38772043    -0.04380
C2404       C  0.48612769  0.25070319  0.38710974    -0.08830
C2405       C  0.46413661  0.25690124  0.37938358     0.04700
C2406       C  0.46035196  0.27949943  0.37107049    -0.03860
Br2407     Br  0.43133870  0.29244089  0.36151731    -0.03550
H2408       H  0.47442944  0.31222596  0.36484405     0.08610
H2409       H  0.48935654  0.23345277  0.39335370     0.06630
Br2410     Br  0.53297458  0.25670336  0.39939011    -0.03980
C2411       C  0.46055157  0.38320429  0.48722879    -0.10620
C2412       C  0.46651816  0.38351016  0.51045722     0.05580
C2413       C  0.48981721  0.38177632  0.51674007    -0.04380
C2414       C  0.50668412  0.38034361  0.49948035    -0.08830
C2415       C  0.50039031  0.38035980  0.47617985     0.04700
C2416       C  0.47691360  0.38121044  0.47024299    -0.03860
Br2417     Br  0.46491461  0.37779514  0.43956772    -0.03550
H2418       H  0.44273178  0.38357722  0.48201603     0.08610
H2419       H  0.52462439  0.37955274  0.50420966     0.06630
Br2420     Br  0.49941741  0.38220904  0.54823758    -0.03980
C2421       C  0.59962901  0.37558995  0.50073106    -0.10620
C2422       C  0.61867492  0.37808321  0.48570394     0.05580
C2423       C  0.64055838  0.37987287  0.49553701    -0.04380
C2424       C  0.64281477  0.37982258  0.51965990    -0.08830
C2425       C  0.62361529  0.37758998  0.53447148     0.04700
C2426       C  0.60192978  0.37508947  0.52462674    -0.03860
Br2427     Br  0.57461214  0.37310031  0.54296381    -0.03550
H2428       H  0.58244885  0.37411501  0.49387654     0.08610
H2429       H  0.65967307  0.38239406  0.52697593     0.06630
Br2430     Br  0.66767479  0.38208374  0.47705871    -0.03980
C2431       C  0.50659784  0.49349299  0.38674654    -0.10620
C2432       C  0.50031682  0.47021410  0.38597144     0.05580
C2433       C  0.47690184  0.46433136  0.38462579    -0.04380
C2434       C  0.46043649  0.48135681  0.38540632    -0.08830
C2435       C  0.46636606  0.50454715  0.38686932     0.04700
C2436       C  0.48969053  0.51078938  0.38709657    -0.03860
Br2437     Br  0.49916238  0.54223989  0.38885709    -0.03550
H2438       H  0.52453797  0.49816514  0.38748015     0.08610
H2439       H  0.44263960  0.47624064  0.38419798     0.06630
Br2440     Br  0.46541476  0.43368068  0.37990413    -0.03980
C2441       C  0.51103836  0.63394864  0.37006727    -0.10620
C2442       C  0.52227559  0.62238457  0.38808559     0.05580
C2443       C  0.50848566  0.61228684  0.40539482    -0.04380
C2444       C  0.48445114  0.61380684  0.40461178    -0.08830
C2445       C  0.47313808  0.62532397  0.38672862     0.04700
C2446       C  0.48679475  0.63501766  0.36906590    -0.03860
Br2447     Br  0.47285252  0.64948267  0.34295304    -0.03550
H2448       H  0.52108117  0.64270413  0.35708754     0.08610
H2449       H  0.47447070  0.60491966  0.41756152     0.06630
Br2450     Br  0.52184590  0.59587374  0.43072879    -0.03980
C2451       C  0.50671841  0.61978857  0.49857124    -0.10620
C2452       C  0.52906210  0.62527155  0.50555032     0.05580
C2453       C  0.53319125  0.63252073  0.52820667    -0.04380
C2454       C  0.51552562  0.63220752  0.54397255    -0.08830
C2455       C  0.49355156  0.62520276  0.53761806     0.04700
C2456       C  0.48876135  0.61983376  0.51461144    -0.03860
Br2457     Br  0.45855989  0.61152266  0.50485628    -0.03550
H2458       H  0.50341657  0.61486608  0.48095571     0.08610
H2459       H  0.51905056  0.63740455  0.56148903     0.06630
Br2460     Br  0.56224154  0.64398814  0.53878885    -0.03980
C2461       C  0.63733477  0.51691630  0.50518282    -0.10620
C2462       C  0.61715120  0.52935103  0.50104767     0.05580
C2463       C  0.59703270  0.52375197  0.51314428    -0.04380
C2464       C  0.59789608  0.50735220  0.53066938    -0.08830
C2465       C  0.61858472  0.49628559  0.53613420     0.04700
C2466       C  0.63832059  0.50065084  0.52276038    -0.03860
Br2467     Br  0.66799708  0.48801609  0.52979131    -0.03550
H2468       H  0.65297212  0.52130266  0.49612423     0.08610
H2469       H  0.58259057  0.50387732  0.54064499     0.06630
Br2470     Br  0.56821017  0.53834851  0.50657929    -0.03980
C2471       C  0.63309192  0.51513766  0.37127465    -0.10620
C2472       C  0.61939471  0.52679266  0.38743950     0.05580
C2473       C  0.60713737  0.51356314  0.40365529    -0.04380
C2474       C  0.60860125  0.48951351  0.40356742    -0.08830
C2475       C  0.62224710  0.47777528  0.38750535     0.04700
C2476       C  0.63416839  0.49090249  0.37092305    -0.03860
Br2477     Br  0.65156305  0.47625679  0.34706634    -0.03550
H2478       H  0.64349981  0.52488115  0.35933234     0.08610
H2479       H  0.59813953  0.47983980  0.41553301     0.06630
Br2480     Br  0.58821161  0.52781371  0.42666098    -0.03980
C2481       C  0.60486065  0.72005240  0.52205997    -0.10620
C2482       C  0.62308970  0.71637998  0.50688431     0.05580
C2483       C  0.64179301  0.73149683  0.50650096    -0.04380
C2484       C  0.64260879  0.74952032  0.52234838    -0.08830
C2485       C  0.62468179  0.75263031  0.53812709     0.04700
C2486       C  0.60551076  0.73806178  0.53766510    -0.03860
Br2487     Br  0.58061535  0.74095289  0.55918294    -0.03550
H2488       H  0.59040673  0.70840934  0.52225189     0.08610
H2489       H  0.65744974  0.76062819  0.52281968     0.06630
Br2490     Br  0.66659648  0.72762298  0.48516113    -0.03980
C2491       C  0.38775330  0.24084208  0.15787893    -0.10620
C2492       C  0.37581215  0.23036653  0.13985915     0.05580
C2493       C  0.36529414  0.24470712  0.12327064    -0.04380
C2494       C  0.36631107  0.26884653  0.12523802    -0.08830
C2495       C  0.37834964  0.27923572  0.14330433     0.04700
C2496       C  0.38898354  0.26484203  0.15974339    -0.03860
Br2497     Br  0.40594314  0.27733588  0.18501093    -0.03550
H2498       H  0.39713283  0.23027901  0.17001874     0.08610
H2499       H  0.35718301  0.27947760  0.11297397     0.06630
Br2500     Br  0.34974344  0.23187731  0.09733931    -0.03980
C2501       C  0.35586804  0.49278369  0.15360072    -0.10620
C2502       C  0.37057001  0.48017548  0.13916869     0.05580
C2503       C  0.38618826  0.49246549  0.12526537    -0.04380
C2504       C  0.38588991  0.51671898  0.12496701    -0.08830
C2505       C  0.37099956  0.52922342  0.13936197     0.04700
C2506       C  0.35604562  0.51687142  0.15381630    -0.03860
Br2507     Br  0.33524327  0.53254576  0.17407925    -0.03550
H2508       H  0.34477195  0.48379471  0.16552593     0.08610
H2509       H  0.39691697  0.52580478  0.11306181     0.06630
Br2510     Br  0.40885765  0.47675154  0.10721724    -0.03980
C2511       C  0.38824809  0.48870699  0.25763328    -0.10620
C2512       C  0.36857112  0.47520528  0.25535488     0.05580
C2513       C  0.34951824  0.47932604  0.26964401    -0.04380
C2514       C  0.35123620  0.49523761  0.28740647    -0.08830
C2515       C  0.37168903  0.50718427  0.29103455     0.04700
C2516       C  0.39009581  0.50446833  0.27549166    -0.03860
Br2517     Br  0.41944449  0.51877464  0.27957461    -0.03550
H2518       H  0.40307567  0.48552635  0.24683043     0.08610
H2519       H  0.33685777  0.49768270  0.29893871     0.06630
Br2520     Br  0.32106426  0.46335524  0.26595362    -0.03980
C2521       C  0.28339370  0.40721036  0.27386993    -0.10620
C2522       C  0.28023821  0.39348241  0.25442441     0.05580
C2523       C  0.25873698  0.38304478  0.25098027    -0.04380
C2524       C  0.24251899  0.38336781  0.26877024    -0.08830
C2525       C  0.24739962  0.39414490  0.28978689     0.04700
C2526       C  0.26752267  0.40749779  0.29158144    -0.03860
Br2527     Br  0.27644706  0.42495665  0.31810021    -0.03550
H2528       H  0.29930270  0.41637993  0.27636084     0.08610
H2529       H  0.22670965  0.37392953  0.26664394     0.06630
Br2530     Br  0.25065513  0.36748951  0.22316090    -0.03980
C2531       C  0.39644309  0.27865469  0.26500516    -0.10620
C2532       C  0.37542333  0.28886379  0.25925952     0.05580
C2533       C  0.35492269  0.28051941  0.26883130    -0.04380
C2534       C  0.35569830  0.26234191  0.28430960    -0.08830
C2535       C  0.37671679  0.25272003  0.29081718     0.04700
C2536       C  0.39719092  0.26055927  0.28080983    -0.03860
Br2537     Br  0.42626539  0.24709634  0.28840622    -0.03550
H2538       H  0.41223070  0.28508568  0.25761392     0.08610
H2539       H  0.33996402  0.25673827  0.29248245     0.06630
Br2540     Br  0.32578544  0.29516153  0.26364036    -0.03980
C2541       C  0.50282176  0.38432923  0.27492760    -0.10620
C2542       C  0.49669813  0.37761769  0.29734177     0.05580
C2543       C  0.47406689  0.36996584  0.30161107    -0.04380
C2544       C  0.45845280  0.36941114  0.28386206    -0.08830
C2545       C  0.46395370  0.37729022  0.26178935     0.04700
C2546       C  0.48660845  0.38437792  0.25714400    -0.03860
Br2547     Br  0.49654418  0.39425861  0.22731199    -0.03550
H2548       H  0.52010918  0.39004683  0.27131828     0.08610
H2549       H  0.44126154  0.36375974  0.28797732     0.06630
Br2550     Br  0.46132882  0.36175908  0.33116028    -0.03980
C2551       C  0.23577110  0.49624839  0.14367690    -0.10620
C2552       C  0.21528557  0.50262168  0.13278060     0.05580
C2553       C  0.21352578  0.52385067  0.12141901    -0.04380
C2554       C  0.23163090  0.53906491  0.12239101    -0.08830
C2555       C  0.25159947  0.53346042  0.13445074     0.04700
C2556       C  0.25406206  0.51169572  0.14462198    -0.03860
Br2557     Br  0.28124729  0.50297246  0.16084292    -0.03550
H2558       H  0.23721258  0.47968221  0.15207176     0.08610
H2559       H  0.22991881  0.55566671  0.11407902     0.06630
Br2560     Br  0.18699201  0.53291183  0.10399153    -0.03980
C2561       C  0.23303451  0.36474102  0.14434379    -0.10620
C2562       C  0.22564722  0.38192342  0.12931230     0.05580
C2563       C  0.24274415  0.39342930  0.11587802    -0.04380
C2564       C  0.26621372  0.39009744  0.12027667    -0.08830
C2565       C  0.27354183  0.37451238  0.13693665     0.04700
C2566       C  0.25654435  0.36046350  0.14771880    -0.03860
Br2567     Br  0.26370680  0.33435521  0.16675817    -0.03550
H2568       H  0.22051813  0.35487592  0.15390282     0.08610
H2569       H  0.27874891  0.40021397  0.11100691     0.06630
Br2570     Br  0.23603779  0.41367108  0.09055219    -0.03980
C2571       C  0.13403457  0.36405997  0.24066131    -0.10620
C2572       C  0.11839155  0.38066033  0.23333577     0.05580
C2573       C  0.10431144  0.39155154  0.25030836    -0.04380
C2574       C  0.10882485  0.38855888  0.27379487    -0.08830
C2575       C  0.12630332  0.37388909  0.28107539     0.04700
C2576       C  0.13761817  0.36008809  0.26415554    -0.03860
Br2577     Br  0.15807565  0.33505658  0.27134606    -0.03550
H2578       H  0.14410511  0.35465925  0.22812673     0.08610
H2579       H  0.09915047  0.39836581  0.28632797     0.06630
Br2580     Br  0.07820806  0.41061473  0.24321969    -0.03980
C2581       C  0.13295970  0.52349900  0.04538397    -0.10620
C2582       C  0.12405488  0.50178099  0.04076852     0.05580
C2583       C  0.11654184  0.49625249  0.01852648    -0.04380
C2584       C  0.11630783  0.51340413  0.00160247    -0.08830
C2585       C  0.12385433  0.53561250  0.00691343     0.04700
C2586       C  0.13319625  0.54029829  0.02864254    -0.03860
Br2587     Br  0.14703237  0.56914149  0.03650768    -0.03550
H2588       H  0.13969462  0.52749184  0.06225332     0.08610
H2589       H  0.10958782  0.50966992  0.98468918     0.06630
Br2590     Br  0.10541022  0.46623637  0.01110440    -0.03980
C2591       C  0.03845607  0.52718466  0.13664375    -0.10620
C2592       C  0.03254571  0.50416123  0.13358890     0.05580
C2593       C  0.00924756  0.49783009  0.13326696    -0.04380
C2594       C  0.99228072  0.51494008  0.13492842    -0.08830
C2595       C  0.99848304  0.53810154  0.13718948     0.04700
C2596       C  0.02187105  0.54401826  0.13881957    -0.03860
Br2597     Br  0.03295803  0.57443136  0.14549194    -0.03550
H2598       H  0.05627342  0.53221026  0.13798825     0.08610
H2599       H  0.97436183  0.51026018  0.13386001     0.06630
Br2600     Br  0.99986388  0.46653846  0.12946417    -0.03980
C2601       C  0.23383978  0.39138238  0.63602561    -0.10620
C2602       C  0.22291404  0.37270545  0.62545643     0.05580
C2603       C  0.23696774  0.35530803  0.61580215    -0.04380
C2604       C  0.26101505  0.35668070  0.61676941    -0.08830
C2605       C  0.27199532  0.37517477  0.62744564     0.04700
C2606       C  0.25803929  0.39288330  0.63668305    -0.03860
Br2607     Br  0.27148811  0.41964154  0.65016383    -0.03550
H2608       H  0.22359069  0.40448520  0.64440574     0.08610
H2609       H  0.27122322  0.34360182  0.60829139     0.06630
Br2610     Br  0.22394403  0.32909353  0.60079682    -0.03980
C2611       C  0.22829156  0.21461242  0.63748805    -0.10620
C2612       C  0.25090509  0.22120643  0.63316855     0.05580
C2613       C  0.25618612  0.24454879  0.63002607    -0.04380
C2614       C  0.23834819  0.26082131  0.63000009    -0.08830
C2615       C  0.21553008  0.25379643  0.63317183     0.04700
C2616       C  0.21070743  0.23052556  0.63773194    -0.03860
Br2617     Br  0.18081537  0.21896419  0.64572006    -0.03550
H2618       H  0.22418528  0.19677549  0.64086605     0.08610
H2619       H  0.24217910  0.27875326  0.62690626     0.06630
Br2620     Br  0.28696770  0.25458767  0.62451610    -0.03980
C2621       C  0.11316393  0.36227625  0.48864564    -0.10620
C2622       C  0.12566129  0.38126020  0.48153396     0.05580
C2623       C  0.13307478  0.39714846  0.49856771    -0.04380
C2624       C  0.13022628  0.39236993  0.52210759    -0.08830
C2625       C  0.11927426  0.37233100  0.52940700     0.04700
C2626       C  0.10958144  0.35776416  0.51202951    -0.03860
Br2627     Br  0.09134858  0.33072632  0.51751186    -0.03550
H2628       H  0.10698818  0.35022498  0.47593795     0.08610
H2629       H  0.13682912  0.40428008  0.53471095     0.06630
Br2630     Br  0.14667381  0.42623373  0.49102974    -0.03980
C2631       C  0.02173438  0.21139969  0.62173740    -0.10620
C2632       C  0.99993230  0.21738117  0.62982306     0.05580
C2633       C  0.99522115  0.24002480  0.63669346    -0.04380
C2634       C  0.01290450  0.25620252  0.63640323    -0.08830
C2635       C  0.03503363  0.24973557  0.62935337     0.04700
C2636       C  0.03921659  0.22734984  0.62124481    -0.03860
Br2637     Br  0.06800143  0.21762399  0.60817596    -0.03550
H2638       H  0.02521010  0.19410961  0.61573116     0.08610
H2639       H  0.00959494  0.27354241  0.64230722     0.06630
Br2640     Br  0.96561242  0.24895553  0.64794899    -0.03980
C2641       C  0.64187811  0.37509533  0.24849823    -0.10620
C2642       C  0.62281626  0.37277918  0.23371735     0.05580
C2643       C  0.60102173  0.37064637  0.24374994    -0.04380
C2644       C  0.59849639  0.37107156  0.26770678    -0.08830
C2645       C  0.61740832  0.37355343  0.28259159     0.04700
C2646       C  0.63931606  0.37586513  0.27264362    -0.03860
Br2647     Br  0.66589581  0.38134512  0.29107344    -0.03550
H2648       H  0.65894700  0.37603186  0.24119320     0.08610
H2649       H  0.58138132  0.36949452  0.27480811     0.06630
Br2650     Br  0.57430465  0.36524708  0.22561791    -0.03980
C2651       C  0.50841129  0.22412541  0.15934820    -0.10620
C2652       C  0.49105180  0.22582872  0.14276826     0.05580
C2653       C  0.48936450  0.24618406  0.12958032    -0.04380
C2654       C  0.50698583  0.26242404  0.13065998    -0.08830
C2655       C  0.52606592  0.25891570  0.14495313     0.04700
C2656       C  0.52571863  0.24046144  0.16071038    -0.03860
Br2657     Br  0.54863709  0.23577648  0.18398998    -0.03550
H2658       H  0.50931804  0.20927161  0.17056053     0.08610
H2659       H  0.50647966  0.27700945  0.11909251     0.06630
Br2660     Br  0.46472452  0.25239656  0.10861781    -0.03980
C2661       C  0.50945847  0.38416291  0.12039447    -0.10620
C2662       C  0.52349133  0.37744733  0.13900704     0.05580
C2663       C  0.51272939  0.36989203  0.15923133    -0.04380
C2664       C  0.48878815  0.36963163  0.16089740    -0.08830
C2665       C  0.47468260  0.37634902  0.14244323     0.04700
C2666       C  0.48529520  0.38394682  0.12206702    -0.03860
Br2667     Br  0.46758345  0.39478901  0.09654385    -0.03550
H2668       H  0.51734586  0.38885723  0.10419403     0.08610
H2669       H  0.48104865  0.36418439  0.17694069     0.06630
Br2670     Br  0.53002258  0.35752806  0.18428085    -0.03980
C2671       C  0.60962259  0.24055102  0.00423110    -0.10620
C2672       C  0.62869680  0.22579387  0.00362967     0.05580
C2673       C  0.64640916  0.22872840  0.01974982    -0.04380
C2674       C  0.64359486  0.24441144  0.03761382    -0.08830
C2675       C  0.62345832  0.25751280  0.03958435     0.04700
C2676       C  0.60676694  0.25627894  0.02210523    -0.03860
Br2677     Br  0.57827490  0.27294575  0.02307459    -0.03550
H2678       H  0.59589543  0.23854150  0.99189984     0.08610
H2679       H  0.65683690  0.24569958  0.05057039     0.06630
Br2680     Br  0.67449366  0.21140012  0.01865047    -0.03980
C2681       C  0.20496738  0.12925576  0.73070195    -0.10620
C2682       C  0.21152110  0.12630511  0.75361754     0.05580
C2683       C  0.23488514  0.12432008  0.75923551    -0.04380
C2684       C  0.25128377  0.12473071  0.74161017    -0.08830
C2685       C  0.24448371  0.12727181  0.71860073     0.04700
C2686       C  0.22104643  0.13011353  0.71329310    -0.03860
Br2687     Br  0.20931521  0.13738813  0.68319678    -0.03550
H2688       H  0.18708633  0.13169146  0.72623736     0.08610
H2689       H  0.26927458  0.12282649  0.74581959     0.06630
Br2690     Br  0.24501739  0.12009101  0.79027977    -0.03980
C2691       C  0.14445102  0.01536795  0.72772931    -0.10620
C2692       C  0.12419499  0.00320523  0.72367018     0.05580
C2693       C  0.10512040  0.00635572  0.73831025    -0.04380
C2694       C  0.10631004  0.02237270  0.75598296    -0.08830
C2695       C  0.12597115  0.03573520  0.75891550     0.04700
C2696       C  0.14548588  0.03156579  0.74529538    -0.03860
Br2697     Br  0.17372307  0.04774106  0.74981270    -0.03550
H2698       H  0.15924835  0.01280336  0.71672567     0.08610
H2699       H  0.09111543  0.02573874  0.76620935     0.06630
Br2700     Br  0.07584121  0.99223420  0.73314371    -0.03980
C2701       C  0.12366276  0.25832551  0.74355792    -0.10620
C2702       C  0.11909901  0.25154586  0.72082230     0.05580
C2703       C  0.11250658  0.22856329  0.71651506    -0.04380
C2704       C  0.11087465  0.21326878  0.73449450    -0.08830
C2705       C  0.11677623  0.21938083  0.75694061     0.04700
C2706       C  0.12263225  0.24236378  0.76167582    -0.03860
Br2707     Br  0.12878470  0.25294619  0.79222917    -0.03550
H2708       H  0.12841654  0.27590987  0.74718778     0.08610
H2709       H  0.10624621  0.19578434  0.73029482     0.06630
Br2710     Br  0.10762174  0.21474421  0.68675613    -0.03980
C2711       C  0.00912535  0.13319045  0.76291944    -0.10620
C2712       C  0.03180334  0.12806078  0.75650547     0.05580
C2713       C  0.03695633  0.12246453  0.73352464    -0.04380
C2714       C  0.01994439  0.12363576  0.71718152    -0.08830
C2715       C  0.99752166  0.12970569  0.72314880     0.04700
C2716       C  0.99179458  0.13390853  0.74625549    -0.03860
Br2717     Br  0.96113268  0.14170408  0.75542493    -0.03550
H2718       H  0.00505957  0.13716204  0.78064326     0.08610
H2719       H  0.02429058  0.11933451  0.69958344     0.06630
Br2720     Br  0.06648732  0.11174626  0.72306556    -0.03980
C2721       C  0.75630380  0.74129612  0.62089315    -0.10620
C2722       C  0.75173801  0.72080650  0.63272489     0.05580
C2723       C  0.73110434  0.71814498  0.64491372    -0.04380
C2724       C  0.71471698  0.73531428  0.64403109    -0.08830
C2725       C  0.71856234  0.75522380  0.63122110     0.04700
C2726       C  0.73964889  0.75868202  0.62008136    -0.03860
Br2727     Br  0.74556255  0.78596197  0.60262726    -0.03550
H2728       H  0.77229311  0.74335219  0.61162835     0.08610
H2729       H  0.69857357  0.73287493  0.65297163     0.06630
Br2730     Br  0.72416539  0.69128506  0.66282794    -0.03980
C2731       C  0.75095634  0.51697332  0.62869879    -0.10620
C2732       C  0.74423745  0.54017210  0.62806802     0.05580
C2733       C  0.72073517  0.54586642  0.62672578    -0.04380
C2734       C  0.70456924  0.52866159  0.62756783    -0.08830
C2735       C  0.71099288  0.50553647  0.62904469     0.04700
C2736       C  0.73443060  0.49953121  0.62907171    -0.03860
Br2737     Br  0.74469539  0.46821256  0.63063516    -0.03550
H2738       H  0.76898196  0.51246097  0.62936193     0.08610
H2739       H  0.68665389  0.53355649  0.62650475     0.06630
Br2740     Br  0.70884810  0.57645495  0.62197769    -0.03980
C2741       C  0.75475520  0.62479787  0.74437719    -0.10620
C2742       C  0.74727999  0.62605653  0.72143411     0.05580
C2743       C  0.72361182  0.62746280  0.71664887    -0.04380
C2744       C  0.70810821  0.62682148  0.73445652    -0.08830
C2745       C  0.71523926  0.62501453  0.75731138     0.04700
C2746       C  0.73877838  0.62426086  0.76245046    -0.03860
Br2747     Br  0.74966291  0.62153159  0.79339177    -0.03550
H2748       H  0.77291292  0.62393117  0.74818408     0.08610
H2749       H  0.69007779  0.62830898  0.73021279     0.06630
Br2750     Br  0.71032373  0.63199035  0.68665199    -0.03980
C2751       C  0.72785180  0.64588871  0.54493398    -0.10620
C2752       C  0.74881473  0.63504000  0.54002812     0.05580
C2753       C  0.75200253  0.62517233  0.51811490    -0.04380
C2754       C  0.73342123  0.62401347  0.50286362    -0.08830
C2755       C  0.71170647  0.63272223  0.50902293     0.04700
C2756       C  0.70938822  0.64468832  0.53005334    -0.03860
Br2757     Br  0.68160790  0.65893035  0.54121747    -0.03550
H2758       H  0.72515528  0.65444533  0.56122861     0.08610
H2759       H  0.73579758  0.61552598  0.48648346     0.06630
Br2760     Br  0.78091895  0.61311782  0.50788987    -0.03980
C2761       C  0.73242046  0.25547600  0.12977657    -0.10620
C2762       C  0.70958623  0.24776530  0.12997290     0.05580
C2763       C  0.70511382  0.22397633  0.13059054    -0.04380
C2764       C  0.72318626  0.20860918  0.13020906    -0.08830
C2765       C  0.74597831  0.21606390  0.12981680     0.04700
C2766       C  0.75070203  0.23973483  0.12976667    -0.03860
Br2767     Br  0.78144055  0.25126816  0.12885303    -0.03550
H2768       H  0.73602116  0.27371460  0.12955408     0.08610
H2769       H  0.71920480  0.19046402  0.13104352     0.06630
Br2770     Br  0.67519430  0.21046904  0.13422153    -0.03980
C2771       C  0.73790232  0.13212051  0.00277704    -0.10620
C2772       C  0.71526440  0.12661450  0.00877979     0.05580
C2773       C  0.71015288  0.11908320  0.03118388    -0.04380
C2774       C  0.72719400  0.11885461  0.04762876    -0.08830
C2775       C  0.74953115  0.12554824  0.04214853     0.04700
C2776       C  0.75520150  0.13155351  0.01943699    -0.03860
Br2777     Br  0.78568321  0.14043376  0.01092495    -0.03550
H2778       H  0.74195862  0.13751480  0.98544415     0.08610
H2779       H  0.72292486  0.11337052  0.06492221     0.06630
Br2780     Br  0.68049766  0.10796746  0.04037577    -0.03980
C2781       C  0.75537945  0.01408204  0.13561632    -0.10620
C2782       C  0.74826914  0.03718712  0.13599648     0.05580
C2783       C  0.72463610  0.04246148  0.13719499    -0.04380
C2784       C  0.70897480  0.02499571  0.13936213    -0.08830
C2785       C  0.71577060  0.00193343  0.13938366     0.04700
C2786       C  0.73919607  0.99633670  0.13705470    -0.03860
Br2787     Br  0.74992952  0.96518736  0.13626436    -0.03550
H2788       H  0.77344477  0.00986640  0.13432857     0.08610
H2789       H  0.69100018  0.02973073  0.14003059     0.06630
Br2790     Br  0.71134738  0.07269961  0.13379253    -0.03980
C2791       C  0.12188624  0.51790553  0.39654721    -0.10620
C2792       C  0.12803368  0.52760688  0.37535233     0.05580
C2793       C  0.13392443  0.51260079  0.35708333    -0.04380
C2794       C  0.13288544  0.48873680  0.35985022    -0.08830
C2795       C  0.12673736  0.47899497  0.38089947     0.04700
C2796       C  0.12168507  0.49385530  0.39951551    -0.03860
Br2797     Br  0.11466187  0.48188968  0.42943874    -0.03550
H2798       H  0.11673159  0.52894735  0.41061293     0.08610
H2799       H  0.13838589  0.47773044  0.34587225     0.06630
Br2800     Br  0.14502820  0.52375496  0.32809624    -0.03980
C2801       C  0.25510241  0.60478277  0.39339251    -0.10620
C2802       C  0.27105133  0.62091840  0.38441204     0.05580
C2803       C  0.26219403  0.64125382  0.37479639    -0.04380
C2804       C  0.23829079  0.64433283  0.37317756    -0.08830
C2805       C  0.22252180  0.62751553  0.38093013     0.04700
C2806       C  0.23129031  0.60785978  0.39172898    -0.03860
Br2807     Br  0.21183523  0.58363516  0.40254367    -0.03550
H2808       H  0.26104541  0.58900013  0.40127474     0.08610
H2809       H  0.23196460  0.65977662  0.36488985     0.06630
Br2810     Br  0.28152625  0.66512991  0.36312218    -0.03980
C2811       C  0.21132473  0.60737381  0.23955513    -0.10620
C2812       C  0.21590835  0.61631314  0.26131104     0.05580
C2813       C  0.23817140  0.62438338  0.26620312    -0.04380
C2814       C  0.25459674  0.62521728  0.24854591    -0.08830
C2815       C  0.24898002  0.61833267  0.22612716     0.04700
C2816       C  0.22691836  0.60908623  0.22185922    -0.03860
Br2817     Br  0.21425495  0.60106308  0.19226145    -0.03550
H2818       H  0.19456088  0.60060859  0.23544340     0.08610
H2819       H  0.27150774  0.63188956  0.25218180     0.06630
Br2820     Br  0.24722602  0.63429619  0.29625923    -0.03980
C2821       C  0.14611134  0.53347199  0.24483674    -0.10620
C2822       C  0.12866537  0.53269546  0.26148375     0.05580
C2823       C  0.11407538  0.51339413  0.26217622    -0.04380
C2824       C  0.11518488  0.49720154  0.24446581    -0.08830
C2825       C  0.13067166  0.49983005  0.22614165     0.04700
C2826       C  0.14731113  0.51727209  0.22730639    -0.03860
Br2827     Br  0.17171930  0.52056566  0.20528777    -0.03550
H2828       H  0.15822911  0.54752635  0.24466849     0.08610
H2829       H  0.10276276  0.48342841  0.24423482     0.06630
Br2830     Br  0.09099722  0.50881684  0.28528784    -0.03980
C2831       C  0.01833159  0.64094529  0.21777444    -0.10620
C2832       C  0.99610916  0.63489470  0.22460020     0.05580
C2833       C  0.99195376  0.62956819  0.24786623    -0.04380
C2834       C  0.01042750  0.62895533  0.26332816    -0.08830
C2835       C  0.03294436  0.63350620  0.25581588     0.04700
C2836       C  0.03664378  0.63980290  0.23263154    -0.03860
Br2837     Br  0.06601057  0.64475600  0.21808126    -0.03550
H2838       H  0.02211817  0.64527721  0.20008648     0.08610
H2839       H  0.00724783  0.62447060  0.28111629     0.06630
Br2840     Br  0.96176325  0.62355175  0.25949540    -0.03980
C2841       C  0.13981313  0.75179499  0.23960869    -0.10620
C2842       C  0.11933990  0.75570582  0.22768612     0.05580
C2843       C  0.09977415  0.74267739  0.23301496    -0.04380
C2844       C  0.10146103  0.72470405  0.24880040    -0.08830
C2845       C  0.12242804  0.71966960  0.25940914     0.04700
C2846       C  0.14163197  0.73369976  0.25517155    -0.03860
Br2847     Br  0.17168629  0.72694202  0.26695516    -0.03550
H2848       H  0.15505889  0.76147199  0.23528333     0.08610
H2849       H  0.08657975  0.71414773  0.25222087     0.06630
Br2850     Br  0.07063078  0.74845613  0.21881309    -0.03980
C2851       C  0.10633913  0.73562030  0.00676644    -0.10620
C2852       C  0.12416310  0.71939798  0.00668991     0.05580
C2853       C  0.14234124  0.72157206  0.02237127    -0.04380
C2854       C  0.14118529  0.73834233  0.03934644    -0.08830
C2855       C  0.12219671  0.75311038  0.04090940     0.04700
C2856       C  0.10506187  0.75235963  0.02381159    -0.03860
Br2857     Br  0.07792015  0.77122675  0.02415116    -0.03550
H2858       H  0.09232381  0.73415841  0.99467491     0.08610
H2859       H  0.15474874  0.73918856  0.05200433     0.06630
Br2860     Br  0.16888953  0.70192507  0.02179954    -0.03980
C2861       C  0.20768481  0.72965225  0.11378285    -0.10620
C2862       C  0.21193892  0.75060307  0.12477779     0.05580
C2863       C  0.23390359  0.75453179  0.13409461    -0.04380
C2864       C  0.24987401  0.73650320  0.13483698    -0.08830
C2865       C  0.24444683  0.71466321  0.12619351     0.04700
C2866       C  0.22341565  0.71172553  0.11445584    -0.03860
Br2867     Br  0.21348534  0.68374138  0.09993507    -0.03550
H2868       H  0.19132611  0.72654888  0.10559815     0.08610
H2869       H  0.26624127  0.73936714  0.14307490     0.06630
Br2870     Br  0.24324071  0.78359950  0.14638049    -0.03980
C2871       C  0.03337008  0.73245922  0.15429026    -0.10620
C2872       C  0.02855791  0.75386120  0.14439759     0.05580
C2873       C  0.00632311  0.75809620  0.13579744    -0.04380
C2874       C  0.99048775  0.74000447  0.13478435    -0.08830
C2875       C  0.99653205  0.71778252  0.14225937     0.04700
C2876       C  0.01817492  0.71439209  0.15283008    -0.03860
Br2877     Br  0.03046879  0.68555191  0.16379465    -0.03550
H2878       H  0.04998661  0.72896300  0.16183141     0.08610
H2879       H  0.97374272  0.74314928  0.12738031     0.06630
Br2880     Br  0.99651817  0.78785430  0.12544917    -0.03980
C2881       C  0.63652698  0.26605296  0.38788190    -0.10620
C2882       C  0.61765499  0.27682061  0.37739250     0.05580
C2883       C  0.60050238  0.26277526  0.36767613    -0.04380
C2884       C  0.60230797  0.23873968  0.36853257    -0.08830
C2885       C  0.62107688  0.22791155  0.37902943     0.04700
C2886       C  0.63847847  0.24188435  0.38839922    -0.03860
Br2887     Br  0.66541983  0.22849357  0.40177417    -0.03550
H2888       H  0.64944464  0.27639036  0.39623552     0.08610
H2889       H  0.58946458  0.22845157  0.35998627     0.06630
Br2890     Br  0.57437983  0.27581650  0.35232761    -0.03980
C2891       C  0.51062595  0.14723979  0.36296148    -0.10620
C2892       C  0.52347986  0.13559331  0.37982456     0.05580
C2893       C  0.51142466  0.12312023  0.39674366    -0.04380
C2894       C  0.48719165  0.12299629  0.39686156    -0.08830
C2895       C  0.47445638  0.13445102  0.37972214     0.04700
C2896       C  0.48657896  0.14686569  0.36289174    -0.03860
Br2897     Br  0.47078424  0.16436543  0.33981567    -0.03550
H2898       H  0.51943739  0.15606885  0.34914148     0.08610
H2899       H  0.47825269  0.11435715  0.41070965     0.06630
Br2900     Br  0.52741481  0.10529475  0.41935629    -0.03980
C2901       C  0.64043220  0.22315867  0.24603085    -0.10620
C2902       C  0.62205460  0.22210668  0.26144950     0.05580
C2903       C  0.60408192  0.23819131  0.26007035    -0.04380
C2904       C  0.60427867  0.25466392  0.24252764    -0.08830
C2905       C  0.62231495  0.25505542  0.22658264     0.04700
C2906       C  0.64064237  0.23944336  0.22856956    -0.03860
Br2907     Br  0.66541987  0.23853753  0.20675554    -0.03550
H2908       H  0.65415451  0.21057143  0.24694827     0.08610
H2909       H  0.59012359  0.26666720  0.24092343     0.06630
Br2910     Br  0.57892226  0.23771013  0.28130797    -0.03980
C2911       C  0.72760274  0.11120498  0.21857705    -0.10620
C2912       C  0.74855617  0.12169542  0.22385422     0.05580
C2913       C  0.75183332  0.13044756  0.24617171    -0.04380
C2914       C  0.73341895  0.13061027  0.26172978    -0.08830
C2915       C  0.71177902  0.12201661  0.25546986     0.04700
C2916       C  0.70928537  0.11148326  0.23374311    -0.03860
Br2917     Br  0.68141054  0.09832561  0.22191696    -0.03550
H2918       H  0.72477855  0.10363885  0.20184324     0.08610
H2919       H  0.73588217  0.13817263  0.27852067     0.06630
Br2920     Br  0.78067861  0.14221026  0.25654779    -0.03980
C2921       C  0.49138329  0.12875397  0.24610326    -0.10620
C2922       C  0.49795604  0.13573192  0.22386506     0.05580
C2923       C  0.52036178  0.14436863  0.22040171    -0.04380
C2924       C  0.53535440  0.14546027  0.23862833    -0.08830
C2925       C  0.52967622  0.13687431  0.26039625     0.04700
C2926       C  0.50710324  0.12916985  0.26439611    -0.03860
Br2927     Br  0.49668945  0.11940097  0.29410598    -0.03550
H2928       H  0.47419457  0.12245602  0.24915748     0.08610
H2929       H  0.55238730  0.15186301  0.23501683     0.06630
Br2930     Br  0.53393171  0.15287531  0.19129888    -0.03980
C2931       C  0.64412226  0.03197008  0.25024984    -0.10620
C2932       C  0.62371294  0.03527701  0.26256024     0.05580
C2933       C  0.60584813  0.01912146  0.26055830    -0.04380
C2934       C  0.60808721  0.00102588  0.24506581    -0.08830
C2935       C  0.62763690  0.99902466  0.23117355     0.04700
C2936       C  0.64628377  0.01388690  0.23472219    -0.03860
Br2937     Br  0.67478975  0.01068548  0.21842737    -0.03550
H2938       H  0.65813439  0.04398230  0.25210581     0.08610
H2939       H  0.59359368  0.98976468  0.24241653     0.06630
Br2940     Br  0.57662927  0.02248533  0.27555314    -0.03980
C2941       C  0.13528950  0.23765299  0.36819241    -0.10620
C2942       C  0.12261088  0.23098548  0.38754829     0.05580
C2943       C  0.11223246  0.24890170  0.40094657    -0.04380
C2944       C  0.11644083  0.27211081  0.39612033    -0.08830
C2945       C  0.13027156  0.27867652  0.37776314     0.04700
C2946       C  0.13879594  0.26106828  0.36296834    -0.03860
Br2947     Br  0.15438747  0.26752865  0.33457055    -0.03550
H2948       H  0.14259782  0.22463299  0.35707026     0.08610
H2949       H  0.10926879  0.28517588  0.40728911     0.06630
Br2950     Br  0.09169015  0.24425981  0.42638876    -0.03980
C2951       C  0.23539784  0.12875659  0.36885542    -0.10620
C2952       C  0.22493824  0.13718003  0.38891873     0.05580
C2953       C  0.23931648  0.14481775  0.40692849    -0.04380
C2954       C  0.26325790  0.14348908  0.40502349    -0.08830
C2955       C  0.27377780  0.13492882  0.38517471     0.04700
C2956       C  0.25953923  0.12806820  0.36673688    -0.03860
Br2957     Br  0.27251199  0.11785390  0.33819826    -0.03550
H2958       H  0.22486774  0.12210880  0.35510335     0.08610
H2959       H  0.27374493  0.15032431  0.41872388     0.06630
Br2960     Br  0.22700942  0.15795883  0.43460575    -0.03980
C2961       C  0.11202059  0.25715459  0.52165480    -0.10620
C2962       C  0.13007965  0.25708095  0.53750246     0.05580
C2963       C  0.14793050  0.24084311  0.53509458    -0.04380
C2964       C  0.14627952  0.22377756  0.51841492    -0.08830
C2965       C  0.12703809  0.22244427  0.50407506     0.04700
C2966       C  0.11012311  0.23984338  0.50524379    -0.03860
Br2967     Br  0.08219754  0.23934391  0.48788618    -0.03550
H2968       H  0.09816159  0.26949614  0.52331975     0.08610
H2969       H  0.15962125  0.21079763  0.51740033     0.06630
Br2970     Br  0.17458140  0.24044359  0.55445540    -0.03980
C2971       C  0.23743097  0.13152911  0.50044496    -0.10620
C2972       C  0.21493038  0.13683889  0.50762840     0.05580
C2973       C  0.21128097  0.14435460  0.53046659    -0.04380
C2974       C  0.22958024  0.14590283  0.54530558    -0.08830
C2975       C  0.25172127  0.13896898  0.53893637     0.04700
C2976       C  0.25586524  0.13246475  0.51596244    -0.03860
Br2977     Br  0.28601184  0.12523526  0.50479346    -0.03550
H2978       H  0.24061781  0.12613542  0.48292186     0.08610
H2979       H  0.22582235  0.15127045  0.56271296     0.06630
Br2980     Br  0.18198070  0.15064435  0.54473989    -0.03980
C2981       C  0.99394952  0.13090511  0.51993939    -0.10620
C2982       C  0.99873472  0.11981617  0.54088961     0.05580
C2983       C  0.01934401  0.10701859  0.54288217    -0.04380
C2984       C  0.03514425  0.10719408  0.52507678    -0.08830
C2985       C  0.03163932  0.12038067  0.50525307     0.04700
C2986       C  0.01018015  0.13130226  0.50210478    -0.03860
Br2987     Br  0.00204489  0.14763066  0.47460870    -0.03550
H2988       H  0.97801057  0.14026868  0.51778753     0.08610
H2989       H  0.05108995  0.09789920  0.52753326     0.06630
Br2990     Br  0.02888382  0.09003042  0.56960822    -0.03980
C2991       C  0.10289289  0.02928249  0.51327288    -0.10620
C2992       C  0.12404018  0.03476647  0.50323579     0.05580
C2993       C  0.14354948  0.02131185  0.50836067    -0.04380
C2994       C  0.14193992  0.00389698  0.52475808    -0.08830
C2995       C  0.12118939  0.99970878  0.53615269     0.04700
C2996       C  0.10130762  0.01158617  0.52939165    -0.03860
Br2997     Br  0.07170692  0.00367734  0.54115563    -0.03550
H2998       H  0.08769150  0.03913286  0.50894941     0.08610
H2999       H  0.15736105  0.99478459  0.52984015     0.06630
Br3000     Br  0.17347459  0.02773809  0.49614525    -0.03980
C3001       C  0.86322560  0.76971200  0.64216558    -0.10620
C3002       C  0.87648487  0.77682819  0.62347197     0.05580
C3003       C  0.88773089  0.75928493  0.61024557    -0.04380
C3004       C  0.88412835  0.73582049  0.61496013    -0.08830
C3005       C  0.86989850  0.72877557  0.63292113     0.04700
C3006       C  0.86010759  0.74627861  0.64719127    -0.03860
Br3007     Br  0.84260590  0.74015160  0.67458575    -0.03550
H3008       H  0.85504947  0.78248672  0.65297329     0.08610
H3009       H  0.89207076  0.72298126  0.60405663     0.06630
Br3010     Br  0.90858122  0.76505185  0.58523252    -0.03980
C3011       C  0.75764898  0.89426770  0.62256610    -0.10620
C3012       C  0.77336527  0.87605966  0.62671917     0.05580
C3013       C  0.76442660  0.85454287  0.63260523    -0.04380
C3014       C  0.74059809  0.85149854  0.63394084    -0.08830
C3015       C  0.72468712  0.86960049  0.62980874     0.04700
C3016       C  0.73366204  0.89130391  0.62423501    -0.03860
Br3017     Br  0.71424991  0.91748375  0.61935823    -0.03550
H3018       H  0.76410153  0.91101139  0.61771176     0.08610
H3019       H  0.73453657  0.83445119  0.63815906     0.06630
Br3020     Br  0.78381399  0.82825403  0.63729859    -0.03980
C3021       C  0.98742952  0.86860492  0.64564070    -0.10620
C3022       C  0.97442882  0.88431355  0.63254262     0.05580
C3023       C  0.98635743  0.89995145  0.61844622    -0.04380
C3024       C  0.01039018  0.89964550  0.61738149    -0.08830
C3025       C  0.02349782  0.88397866  0.63031238     0.04700
C3026       C  0.01168637  0.86879001  0.64509642    -0.03860
Br3027     Br  0.02804462  0.84881396  0.66556525    -0.03550
H3028       H  0.97870777  0.85576893  0.65588511     0.08610
H3029       H  0.01899602  0.91243843  0.60696683     0.06630
Br3030     Br  0.97022801  0.92188048  0.59976587    -0.03980
C3031       C  0.89583098  0.98917128  0.62354620    -0.10620
C3032       C  0.87715097  0.97875322  0.63451475     0.05580
C3033       C  0.85940126  0.99315305  0.64293367    -0.04380
C3034       C  0.86094976  0.01728893  0.64106333    -0.08830
C3035       C  0.87965739  0.02760426  0.62992922     0.04700
C3036       C  0.89711697  0.01311511  0.62111585    -0.03860
Br3037     Br  0.92303782  0.02535385  0.60485478    -0.03550
H3038       H  0.90886693  0.97854029  0.61552588     0.08610
H3039       H  0.84780441  0.02797980  0.64880037     0.06630
Br3040     Br  0.83231970  0.98035345  0.65650097    -0.03980
C3041       C  0.86993951  0.13674863  0.27390906    -0.10620
C3042       C  0.87151834  0.11396024  0.28158304     0.05580
C3043       C  0.87209546  0.09625690  0.26471882    -0.04380
C3044       C  0.87136589  0.10152374  0.24115355    -0.08830
C3045       C  0.86954003  0.12422593  0.23354950     0.04700
C3046       C  0.86887593  0.14193310  0.25027525    -0.03860
Br3047     Br  0.86699593  0.17374001  0.24168291    -0.03550
H3048       H  0.86994887  0.15062275  0.28627887     0.08610
H3049       H  0.87084066  0.08768038  0.22875291     0.06630
Br3050     Br  0.87177078  0.06416195  0.27239764    -0.03980
C3051       C  0.73447943  0.12205086  0.39397221    -0.10620
C3052       C  0.72488919  0.11832988  0.37221377     0.05580
C3053       C  0.74011287  0.11376638  0.35364873    -0.04380
C3054       C  0.76400130  0.11371510  0.35680127    -0.08830
C3055       C  0.77361087  0.11761864  0.37841541     0.04700
C3056       C  0.75849067  0.12138390  0.39719347    -0.03860
Br3057     Br  0.76999243  0.12597112  0.42768089    -0.03550
H3058       H  0.72338228  0.12608089  0.40836693     0.08610
H3059       H  0.77508801  0.10938598  0.34247614     0.06630
Br3060     Br  0.72925894  0.10585882  0.32357622    -0.03980
C3061       C  0.98525404  0.11626990  0.40564426    -0.10620
C3062       C  0.97432633  0.12742525  0.38729134     0.05580
C3063       C  0.98832945  0.13645365  0.36955468    -0.04380
C3064       C  0.01251743  0.13503150  0.37085145    -0.08830
C3065       C  0.02333382  0.12371483  0.38925370     0.04700
C3066       C  0.00923228  0.11427992  0.40666891    -0.03860
Br3067     Br  0.02206655  0.09778698  0.43222944    -0.03550
H3068       H  0.97499580  0.10776664  0.41863814     0.08610
H3069       H  0.02284890  0.14324159  0.35774312     0.06630
Br3070     Br  0.97491878  0.15019494  0.34278995    -0.03980
C3071       C  0.88898207  0.10787112  0.52018532    -0.10620
C3072       C  0.87726652  0.12532940  0.53196401     0.05580
C3073       C  0.86652950  0.14277821  0.51882141    -0.04380
C3074       C  0.86661743  0.14182557  0.49455649    -0.08830
C3075       C  0.87827634  0.12416728  0.48285701     0.04700
C3076       C  0.88959325  0.10720845  0.49610791    -0.03860
Br3077     Br  0.90633175  0.08253140  0.48192040    -0.03550
H3078       H  0.89861911  0.09514961  0.52980428     0.08610
H3079       H  0.85706384  0.15454809  0.48487017     0.06630
Br3080     Br  0.85209180  0.16856171  0.53342851    -0.03980
C3081       C  0.90051518  0.00497033  0.49376890    -0.10620
C3082       C  0.87945013  0.01299860  0.48534475     0.05580
C3083       C  0.85888452  0.00617885  0.49612699    -0.04380
C3084       C  0.85966535  0.99051333  0.51420981    -0.08830
C3085       C  0.88056125  0.98097363  0.52125780     0.04700
C3086       C  0.90117978  0.98901579  0.51171317    -0.03860
Br3087     Br  0.93040162  0.97804572  0.52218925    -0.03550
H3088       H  0.91637924  0.01029439  0.48567777     0.08610
H3089       H  0.84370369  0.98404447  0.52119645     0.06630
Br3090     Br  0.82906005  0.01419901  0.48452363    -0.03980
C3091       C  0.13278898  0.86989413  0.27387725    -0.10620
C3092       C  0.11177735  0.87940478  0.28078495     0.05580
C3093       C  0.09644842  0.88694076  0.26304875    -0.04380
C3094       C  0.10185743  0.88379968  0.23971705    -0.08830
C3095       C  0.12237006  0.87344509  0.23295851     0.04700
C3096       C  0.13828331  0.86716470  0.25043920    -0.03860
Br3097     Br  0.16847830  0.85567479  0.24363056    -0.03550
H3098       H  0.14517638  0.86475373  0.28675224     0.08610
H3099       H  0.08945317  0.88869823  0.22675165     0.06630
Br3100     Br  0.06710737  0.90117069  0.26828995    -0.03980
C3101       C  0.12505900  0.77116762  0.36112383    -0.10620
C3102       C  0.11418210  0.77824972  0.38120549     0.05580
C3103       C  0.10706606  0.76098839  0.39710173    -0.04380
C3104       C  0.11011218  0.73746630  0.39215578    -0.08830
C3105       C  0.12037350  0.73026563  0.37161318     0.04700
C3106       C  0.12811672  0.74779392  0.35607566    -0.03860
Br3107     Br  0.14231766  0.74242678  0.32669186    -0.03550
H3108       H  0.13039956  0.78395662  0.34869208     0.08610
H3109       H  0.10451434  0.72476054  0.40454708     0.06630
Br3110     Br  0.09382437  0.76805106  0.42653565    -0.03980
C3111       C  0.13143584  0.99296509  0.36844754    -0.10620
C3112       C  0.12470246  0.97914715  0.38724262     0.05580
C3113       C  0.11722011  0.99023915  0.40735203    -0.04380
C3114       C  0.11668175  0.01430780  0.40851825    -0.08830
C3115       C  0.12325674  0.02821054  0.38977548     0.04700
C3116       C  0.13114841  0.01720299  0.36970820    -0.03860
Br3117     Br  0.14251700  0.03447407  0.34409566    -0.03550
H3118       H  0.13623902  0.98484126  0.35240186     0.08610
H3119       H  0.11125141  0.02230508  0.42443545     0.06630
Br3120     Br  0.10590325  0.97311259  0.43315302    -0.03980
C3121       C  0.01257945  0.99998785  0.38911910    -0.10620
C3122       C  0.00880729  0.97974146  0.40173855     0.05580
C3123       C  0.99059160  0.97928057  0.41784974    -0.04380
C3124       C  0.97461716  0.99703115  0.41804983    -0.08830
C3125       C  0.97608266  0.01527730  0.40240029     0.04700
C3126       C  0.99648324  0.01795765  0.38958071    -0.03860
Br3127     Br  0.00302375  0.04494587  0.37180408    -0.03550
H3128       H  0.02716265  0.00123273  0.37764497     0.08610
H3129       H  0.95981856  0.99542696  0.42922267     0.06630
Br3130     Br  0.98472048  0.95438309  0.43889182    -0.03980
C3131       C  0.14271851  0.88023564  0.51781749    -0.10620
C3132       C  0.12347859  0.88178183  0.53262122     0.05580
C3133       C  0.10164343  0.88323746  0.52272450    -0.04380
C3134       C  0.09930992  0.88323848  0.49879344    -0.08830
C3135       C  0.11839909  0.88148728  0.48381402     0.04700
C3136       C  0.14033159  0.87968829  0.49367433    -0.03860
Br3137     Br  0.16719857  0.87552908  0.47513149    -0.03550
H3138       H  0.15978829  0.87989394  0.52511581     0.08610
H3139       H  0.08214413  0.88448648  0.49180397     0.06630
Br3140     Br  0.07454058  0.88712370  0.54108761    -0.03980
C3141       C  0.00976030  0.88888011  0.50204405    -0.10620
C3142       C  0.00289239  0.88449507  0.47938415     0.05580
C3143       C  0.97975078  0.87981789  0.47452130    -0.04380
C3144       C  0.96366342  0.88150714  0.49175573    -0.08830
C3145       C  0.97001826  0.88717519  0.51415391     0.04700
C3146       C  0.99332942  0.88999490  0.51965747    -0.03860
Br3147     Br  0.00325793  0.89606389  0.55037710    -0.03550
H3148       H  0.02765416  0.89194239  0.50588194     0.08610
H3149       H  0.94592006  0.87799055  0.48757336     0.06630
Br3150     Br  0.96867174  0.86992744  0.44499405    -0.03980
C3151       C  0.74832191  0.86874709  0.50083870    -0.10620
C3152       C  0.74923739  0.88008107  0.47961949     0.05580
C3153       C  0.76857324  0.89320338  0.47365528    -0.04380
C3154       C  0.78725500  0.89381118  0.48833805    -0.08830
C3155       C  0.78673362  0.88198742  0.50922192     0.04700
C3156       C  0.76697282  0.86987433  0.51588272    -0.03860
Br3157     Br  0.76547311  0.85349455  0.54447270    -0.03550
H3158       H  0.73351410  0.85850348  0.50533892     0.08610
H3159       H  0.80225221  0.90363436  0.48346862     0.06630
Br3160     Br  0.77045621  0.91037158  0.44544967    -0.03980
C3161       C  0.60688781  0.87293492  0.49311822    -0.10620
C3162       C  0.62529964  0.88644866  0.48600087     0.05580
C3163       C  0.63772763  0.89868355  0.50330327    -0.04380
C3164       C  0.63397231  0.89422786  0.52669866    -0.08830
C3165       C  0.61725890  0.87870854  0.53368480     0.04700
C3166       C  0.60237805  0.86953388  0.51660346    -0.03860
Br3167     Br  0.57514915  0.85248324  0.52390780    -0.03550
H3168       H  0.59634873  0.86443437  0.48044578     0.08610
H3169       H  0.64486394  0.90221487  0.53941639     0.06630
Br3170     Br  0.66032342  0.92195789  0.49714063    -0.03980
C3171       C  0.62351634  0.76327253  0.36927789    -0.10620
C3172       C  0.62362866  0.77800809  0.38862495     0.05580
C3173       C  0.62437765  0.76786362  0.41048680    -0.04380
C3174       C  0.62495513  0.74384041  0.41270099    -0.08830
C3175       C  0.62495494  0.72900386  0.39343012     0.04700
C3176       C  0.62401496  0.73910894  0.37147817    -0.03860
Br3177     Br  0.62284692  0.72088289  0.34413713    -0.03550
H3178       H  0.62389277  0.77069116  0.35219626     0.08610
H3179       H  0.62555460  0.73666349  0.42987683     0.06630
Br3180     Br  0.62681437  0.78605429  0.43779337    -0.03980
C3181       C  0.65303393  0.99554289  0.38232894    -0.10620
C3182       C  0.63521833  0.97928406  0.37986917     0.05580
C3183       C  0.61281070  0.98765864  0.37629620    -0.04380
C3184       C  0.60887664  0.01150531  0.37470381    -0.08830
C3185       C  0.62679833  0.02761131  0.37699432     0.04700
C3186       C  0.64905601  0.01930138  0.38096942    -0.03860
Br3187     Br  0.67492199  0.03947297  0.38268610    -0.03550
H3188       H  0.67045676  0.98974971  0.38510837     0.08610
H3189       H  0.59160451  0.01754388  0.37136518     0.06630
Br3190     Br  0.58685540  0.96768315  0.37429786    -0.03980
C3191       C  0.78116227  0.95297227  0.38376767    -0.10620
C3192       C  0.75821946  0.95979949  0.38604173     0.05580
C3193       C  0.75300178  0.98337863  0.38831355    -0.04380
C3194       C  0.77078110  0.99945507  0.38853402    -0.08830
C3195       C  0.79377407  0.99243347  0.38668069     0.04700
C3196       C  0.79886053  0.96875613  0.38437459    -0.03860
Br3197     Br  0.82924310  0.95561317  0.38389332    -0.03550
H3198       H  0.78563673  0.93494789  0.38240496     0.08610
H3199       H  0.76659778  0.01751796  0.39028141     0.06630
Br3200     Br  0.72226854  0.99490042  0.39074450    -0.03980
C3201       C  0.61386721  0.89057126  0.27785770    -0.10620
C3202       C  0.63095674  0.87502535  0.28428813     0.05580
C3203       C  0.64169257  0.86184487  0.26649409    -0.04380
C3204       C  0.63698777  0.86633012  0.24318565    -0.08830
C3205       C  0.62094908  0.88302183  0.23673074     0.04700
C3206       C  0.60841723  0.89430642  0.25466227    -0.03860
Br3207     Br  0.58288000  0.91476648  0.24965831    -0.03550
H3208       H  0.60476261  0.90014771  0.29098065     0.08610
H3209       H  0.64617002  0.85686256  0.23003700     0.06630
Br3210     Br  0.66229638  0.83654527  0.27204734    -0.03980
C3211       C  0.73912128  0.60940688  0.38984587    -0.10620
C3212       C  0.72411413  0.62863334  0.38959607     0.05580
C3213       C  0.73381241  0.65059398  0.38961389    -0.04380
C3214       C  0.75769708  0.65305569  0.38994733    -0.08830
C3215       C  0.77290342  0.63397349  0.38974338     0.04700
C3216       C  0.76323574  0.61189063  0.38952977    -0.03860
Br3217     Br  0.78202165  0.58487860  0.38787898    -0.03550
H3218       H  0.73198800  0.59227134  0.39059604     0.08610
H3219       H  0.76447123  0.67035411  0.39003670     0.06630
Br3220     Br  0.71522068  0.67784447  0.39081059    -0.03980
C3221       C  0.75320932  0.74062326  0.40089911    -0.10620
C3222       C  0.77391794  0.74591095  0.38980505     0.05580
C3223       C  0.77669990  0.76710443  0.37857101    -0.04380
C3224       C  0.75961984  0.78341003  0.38008089    -0.08830
C3225       C  0.73959710  0.77897477  0.39243497     0.04700
C3226       C  0.73574752  0.75720558  0.40210762    -0.03860
Br3227     Br  0.70765910  0.75006570  0.41765498    -0.03550
H3228       H  0.75100333  0.72412296  0.40922829     0.08610
H3229       H  0.76221436  0.79996984  0.37193433     0.06630
Br3230     Br  0.80373542  0.77520412  0.36135634    -0.03980
C3231       C  0.89013225  0.77176158  0.47519981    -0.10620
C3232       C  0.87205935  0.75629953  0.47829278     0.05580
C3233       C  0.85652812  0.75931213  0.49651804    -0.04380
C3234       C  0.85891425  0.77823438  0.51109890    -0.08830
C3235       C  0.87646179  0.79418706  0.50729965     0.04700
C3236       C  0.89240245  0.79068968  0.48953749    -0.03860
Br3237     Br  0.91724921  0.81154103  0.48398872    -0.03550
H3238       H  0.90204426  0.76952663  0.46104709     0.08610
H3239       H  0.84680452  0.78080603  0.52500845     0.06630
Br3240     Br  0.83172607  0.73841998  0.50157695    -0.03980
C3241       C  0.86542632  0.61325162  0.49105397    -0.10620
C3242       C  0.88152038  0.62942763  0.48404576     0.05580
C3243       C  0.89587930  0.63934136  0.50115848    -0.04380
C3244       C  0.89121295  0.63608865  0.52463990    -0.08830
C3245       C  0.87326897  0.62193464  0.53171146     0.04700
C3246       C  0.86168068  0.60887218  0.51446740    -0.03860
Br3247     Br  0.84058263  0.58431381  0.52090034    -0.03550
H3248       H  0.85506053  0.60458934  0.47833868     0.08610
H3249       H  0.90122000  0.64519610  0.53732137     0.06630
Br3250     Br  0.92262044  0.65716291  0.49390410    -0.03980
C3251       C  0.98175922  0.62070552  0.37660481    -0.10620
C3252       C  0.97494498  0.64321584  0.38177127     0.05580
C3253       C  0.99249842  0.65976086  0.38587412    -0.04380
C3254       C  0.01573605  0.65368630  0.38442876    -0.08830
C3255       C  0.02242870  0.63149533  0.37848224     0.04700
C3256       C  0.00512171  0.61476995  0.37496160    -0.03860
Br3257     Br  0.01231443  0.58323733  0.36833662    -0.03550
H3258       H  0.96890786  0.60760413  0.37397388     0.08610
H3259       H  0.02866883  0.66681050  0.38657741     0.06630
Br3260     Br  0.98691501  0.69172805  0.39184429    -0.03980
C3261       C  0.97696540  0.75851431  0.39074726    -0.10620
C3262       C  0.95462099  0.76520678  0.38461958     0.05580
C3263       C  0.95065901  0.78810881  0.37743780    -0.04380
C3264       C  0.96869861  0.80352124  0.37696655    -0.08830
C3265       C  0.99084174  0.79716715  0.38392865     0.04700
C3266       C  0.99509159  0.77416632  0.39039012    -0.03860
Br3267     Br  0.02485223  0.76272122  0.39881523    -0.03550
H3268       H  0.98034483  0.74111243  0.39626131     0.08610
H3269       H  0.96496125  0.82103116  0.37185151     0.06630
Br3270     Br  0.92123218  0.80096956  0.36942369    -0.03980
C3271       C  0.86327893  0.62178165  0.24791235    -0.10620
C3272       C  0.87639417  0.63704815  0.23451539     0.05580
C3273       C  0.89006877  0.65325025  0.24607517    -0.04380
C3274       C  0.89020070  0.65428173  0.27020617    -0.08830
C3275       C  0.87731434  0.63892083  0.28364065     0.04700
C3276       C  0.86336114  0.62287894  0.27215513    -0.03860
Br3277     Br  0.84359751  0.60266953  0.28896820    -0.03550
H3278       H  0.85344482  0.60849014  0.23951508     0.08610
H3279       H  0.90018528  0.66749193  0.27856407     0.06630
Br3280     Br  0.90961320  0.67386069  0.22943149    -0.03980
C3281       C  0.87318120  0.98813981  0.12343482    -0.10620
C3282       C  0.86755314  0.97919474  0.14507664     0.05580
C3283       C  0.86332493  0.99482604  0.16330095    -0.04380
C3284       C  0.86504035  0.01859174  0.15983724    -0.08830
C3285       C  0.87057261  0.02757536  0.13826365     0.04700
C3286       C  0.87439507  0.01205121  0.11989972    -0.03860
Br3287     Br  0.88104941  0.02291724  0.08947556    -0.03550
H3288       H  0.87719484  0.97657651  0.10942006     0.08610
H3289       H  0.86058049  0.03014191  0.17373932     0.06630
Br3290     Br  0.85373742  0.98473163  0.19325314    -0.03980
C3291       C  0.00427843  0.86098692  0.11809649    -0.10620
C3292       C  0.02040416  0.87431269  0.13058778     0.05580
C3293       C  0.01185517  0.89244743  0.14398619    -0.04380
C3294       C  0.98800732  0.89542877  0.14629949    -0.08830
C3295       C  0.97195393  0.88054143  0.13567580     0.04700
C3296       C  0.98047076  0.86383461  0.12057761    -0.03860
Br3297     Br  0.96074805  0.84323207  0.10432971    -0.03550
H3298       H  0.01010085  0.84732753  0.10689003     0.08610
H3299       H  0.98202598  0.90901945  0.15752022     0.06630
Br3300     Br  0.03154352  0.91279426  0.16056041    -0.03980
C3301       C  0.89323966  0.00102342  0.28083783    -0.10620
C3302       C  0.87631230  0.00075062  0.29796166     0.05580
C3303       C  0.85748005  0.98590893  0.29584727    -0.04380
C3304       C  0.85691492  0.97026848  0.27778422    -0.08830
C3305       C  0.87487925  0.96912189  0.26173974     0.04700
C3306       C  0.89284582  0.98525400  0.26286952    -0.03860
Br3307     Br  0.91891982  0.98511788  0.24261699    -0.03550
H3308       H  0.90773273  0.01251081  0.28226576     0.08610
H3309       H  0.84279467  0.95827617  0.27682420     0.06630
Br3310     Br  0.83213395  0.98612125  0.31698262    -0.03980
C3311       C  0.95570156  0.87730366  0.28469606    -0.10620
C3312       C  0.96363687  0.87689897  0.26196189     0.05580
C3313       C  0.98715123  0.87971590  0.25746120    -0.04380
C3314       C  0.00229287  0.88258090  0.27590683    -0.08830
C3315       C  0.99407558  0.88301590  0.29864269     0.04700
C3316       C  0.97037455  0.88065822  0.30286113    -0.03860
Br3317     Br  0.95565156  0.88363713  0.33244028    -0.03550
H3318       H  0.93761762  0.87594458  0.28857441     0.08610
H3319       H  0.02031468  0.88424080  0.27252859     0.06630
Br3320     Br  0.99940408  0.87903443  0.22687163    -0.03980
C3321       C  0.86492441  0.76673040  0.25649992    -0.10620
C3322       C  0.88044022  0.78490578  0.25878342     0.05580
C3323       C  0.89560907  0.78504570  0.27768611    -0.04380
C3324       C  0.89266326  0.76921295  0.29535808    -0.08830
C3325       C  0.87523850  0.75278116  0.29440431     0.04700
C3326       C  0.86222326  0.75060823  0.27407003    -0.03860
Br3327     Br  0.83881114  0.72791156  0.26977474    -0.03550
H3328       H  0.85356675  0.76601174  0.24182551     0.08610
H3329       H  0.90351900  0.77037810  0.31039711     0.06630
Br3330     Br  0.92017377  0.80670885  0.28120172    -0.03980
C3331       C  0.88656375  0.74566234  0.11836039    -0.10620
C3332       C  0.87452051  0.72942055  0.13198600     0.05580
C3333       C  0.85807213  0.73776235  0.14753032    -0.04380
C3334       C  0.85535455  0.76156061  0.15038561    -0.08830
C3335       C  0.86890754  0.77779454  0.13825847     0.04700
C3336       C  0.88401739  0.76947257  0.12139219    -0.03860
Br3337     Br  0.90274344  0.78937570  0.10304960    -0.03550
H3338       H  0.89893338  0.73987609  0.10571254     0.08610
H3339       H  0.84301559  0.76731312  0.16307703     0.06630
Br3340     Br  0.83994998  0.71787361  0.16651178    -0.03980
C3341       C  0.77537847  0.87938540  0.30673898    -0.10620
C3342       C  0.75237041  0.87653129  0.30069370     0.05580
C3343       C  0.74625222  0.87559225  0.27730938    -0.04380
C3344       C  0.76344653  0.87691413  0.26053072    -0.08830
C3345       C  0.78653494  0.87926772  0.26686651     0.04700
C3346       C  0.79241038  0.88047320  0.29037965    -0.03860
Br3347     Br  0.82313561  0.88123817  0.30264336    -0.03550
H3348       H  0.78056372  0.87983681  0.32459035     0.08610
H3349       H  0.75880406  0.87603971  0.24254373     0.06630
Br3350     Br  0.71508295  0.87336422  0.26723462    -0.03980
C3351       C  0.75882529  0.89813283  0.15652797    -0.10620
C3352       C  0.77098793  0.88156792  0.14388345     0.05580
C3353       C  0.75826259  0.86495259  0.13170138    -0.04380
C3354       C  0.73405285  0.86599610  0.13120669    -0.08830
C3355       C  0.72196880  0.88286471  0.14363626     0.04700
C3356       C  0.73475451  0.89888406  0.15645574    -0.03860
Br3357     Br  0.71979681  0.92233297  0.17423049    -0.03550
H3358       H  0.76810958  0.91016825  0.16716185     0.08610
H3359       H  0.72470881  0.85400665  0.12058109     0.06630
Br3360     Br  0.77333515  0.84017541  0.11602389    -0.03980
C3361       C  0.75520283  0.60425636  0.89466123    -0.10620
C3362       C  0.77168025  0.61745449  0.88247348     0.05580
C3363       C  0.76360663  0.63556875  0.86867032    -0.04380
C3364       C  0.73993999  0.63944403  0.86662998    -0.08830
C3365       C  0.72340037  0.62548267  0.87777087     0.04700
C3366       C  0.73143947  0.60804831  0.89243519    -0.03860
Br3367     Br  0.71108434  0.58815094  0.90891061    -0.03550
H3368       H  0.76073404  0.59036782  0.90575970     0.08610
H3369       H  0.73449016  0.65330328  0.85545171     0.06630
Br3370     Br  0.78358593  0.65496479  0.85109169    -0.03980
C3371       C  0.88832483  0.62358390  0.76820368    -0.10620
C3372       C  0.86931366  0.61882761  0.78252222     0.05580
C3373       C  0.84824023  0.61394976  0.77197684    -0.04380
C3374       C  0.84631967  0.61448325  0.74790362    -0.08830
C3375       C  0.86519535  0.61954960  0.73350805     0.04700
C3376       C  0.88635840  0.62430711  0.74402952    -0.03860
Br3377     Br  0.91255332  0.63327112  0.72629401    -0.03550
H3378       H  0.90492833  0.62658863  0.77591257     0.08610
H3379       H  0.82971254  0.61116181  0.74031725     0.06630
Br3380     Br  0.82195079  0.60503632  0.78967084    -0.03980
C3381       C  0.98608873  0.63734250  0.86906674    -0.10620
C3382       C  0.97236791  0.62911365  0.88734343     0.05580
C3383       C  0.98360424  0.61866067  0.90601596    -0.04380
C3384       C  0.00760716  0.61683092  0.90639491    -0.08830
C3385       C  0.02142623  0.62520324  0.88833401     0.04700
C3386       C  0.01031433  0.63589593  0.86965414    -0.03860
Br3387     Br  0.02753701  0.64942000  0.84509023    -0.03550
H3388       H  0.97786616  0.64428272  0.85387976     0.08610
H3389       H  0.01566885  0.60929334  0.92139440     0.06630
Br3390     Br  0.96663939  0.60518978  0.93086006    -0.03980
C3391       C  0.88336131  0.64203109  0.99174880    -0.10620
C3392       C  0.86696154  0.62632363  0.98444367     0.05580
C3393       C  0.85288071  0.61582228  0.00162735    -0.04380
C3394       C  0.85750819  0.61875980  0.02516708    -0.08830
C3395       C  0.87529054  0.63293007  0.03250474     0.04700
C3396       C  0.88724977  0.64588016  0.01527301    -0.03860
Br3397     Br  0.90898974  0.66980223  0.02174326    -0.03550
H3398       H  0.89372877  0.65092063  0.97911705     0.08610
H3399       H  0.84738691  0.60953840  0.03775522     0.06630
Br3400     Br  0.82637245  0.59758275  0.99464511    -0.03980
C3401       C  0.87443103  0.24225180  0.14610209    -0.10620
C3402       C  0.86831298  0.22812686  0.12742589     0.05580
C3403       C  0.86215764  0.23883350  0.10664664    -0.04380
C3404       C  0.86265688  0.26289978  0.10467905    -0.08830
C3405       C  0.86875940  0.27710312  0.12330692     0.04700
C3406       C  0.87500349  0.26641510  0.14411422    -0.03860
Br3407     Br  0.88564702  0.28392019  0.16976795    -0.03550
H3408       H  0.87838465  0.23442366  0.16252700     0.08610
H3409       H  0.85827140  0.27063732  0.08831893     0.06630
Br3410     Br  0.85144946  0.22132533  0.08095535    -0.03980
C3411       C  0.76204811  0.35516084  0.11350645    -0.10620
C3412       C  0.77298845  0.37250501  0.12607303     0.05580
C3413       C  0.75897257  0.38851926  0.13787570    -0.04380
C3414       C  0.73479642  0.38653195  0.13765698    -0.08830
C3415       C  0.72390899  0.36899093  0.12522602     0.04700
C3416       C  0.73798475  0.35319573  0.11320408    -0.03860
Br3417     Br  0.72491505  0.32857529  0.09576202    -0.03550
H3418       H  0.77226835  0.34342206  0.10326846     0.08610
H3419       H  0.72454052  0.39832748  0.14778175     0.06630
Br3420     Br  0.77231510  0.41358133  0.15436115    -0.03980
C3421       C  0.86735329  0.48995379  0.14935024    -0.10620
C3422       C  0.87960008  0.47857559  0.13189722     0.05580
C3423       C  0.89068294  0.49215437  0.11508803    -0.04380
C3424       C  0.88913962  0.51622478  0.11558436    -0.08830
C3425       C  0.87669185  0.52767284  0.13276748     0.04700
C3426       C  0.86635599  0.51419922  0.15018248    -0.03860
Br3427     Br  0.85115823  0.52835637  0.17577301    -0.03550
H3428       H  0.85795979  0.48000755  0.16195486     0.08610
H3429       H  0.89858640  0.52611595  0.10296874     0.06630
Br3430     Br  0.90819655  0.47832762  0.09077489    -0.03980
C3431       C  0.85864837  0.48369808  0.00723470    -0.10620
C3432       C  0.87922625  0.47750438  0.01789412     0.05580
C3433       C  0.89978999  0.48823306  0.01139055    -0.04380
C3434       C  0.89969003  0.50412663  0.99332592    -0.08830
C3435       C  0.87922094  0.50929666  0.98180612     0.04700
C3436       C  0.85851925  0.49923087  0.98907128    -0.03860
Br3437     Br  0.83018700  0.50328798  0.97271253    -0.03550
H3438       H  0.84288426  0.47498689  0.01178404     0.08610
H3439       H  0.91563718  0.51186673  0.98779436     0.06630
Br3440     Br  0.92820529  0.48123949  0.02639220    -0.03980
C3441       C  0.98974121  0.38419050  0.10802019    -0.10620
C3442       C  0.97517654  0.38202078  0.12739060     0.05580
C3443       C  0.98552894  0.38004140  0.14912906    -0.04380
C3444       C  0.00968920  0.38063848  0.15104103    -0.08830
C3445       C  0.02409438  0.38250562  0.13151959     0.04700
C3446       C  0.01370419  0.38439678  0.10989758    -0.03860
Br3447     Br  0.03141582  0.38917491  0.08252760    -0.03550
H3448       H  0.98238811  0.38564890  0.09099816     0.08610
H3449       H  0.01731561  0.38005732  0.16798688     0.06630
Br3450     Br  0.96764647  0.37557808  0.17639379    -0.03980
C3451       C  0.09225053  0.37708205  0.76514446    -0.10620
C3452       C  0.11060663  0.37453073  0.78091147     0.05580
C3453       C  0.13281332  0.37162832  0.77181679    -0.04380
C3454       C  0.13608071  0.37073565  0.74782246    -0.08830
C3455       C  0.11766167  0.37298569  0.73217251     0.04700
C3456       C  0.09555957  0.37632388  0.74120444    -0.03860
Br3457     Br  0.06909455  0.37798685  0.72175697    -0.03550
H3458       H  0.07492140  0.37945317  0.77147004     0.08610
H3459       H  0.15324843  0.36778471  0.74128905     0.06630
Br3460     Br  0.15934890  0.36958222  0.79107771    -0.03980
C3461       C  0.10242802  0.23549058  0.88916412    -0.10620
C3462       C  0.12227193  0.22889108  0.87750094     0.05580
C3463       C  0.13737304  0.24648576  0.86974278    -0.04380
C3464       C  0.13158739  0.26981076  0.87229593    -0.08830
C3465       C  0.11111247  0.27652985  0.88293354     0.04700
C3466       C  0.09671814  0.25877664  0.89206493    -0.03860
Br3467     Br  0.06837909  0.26384693  0.90838581    -0.03550
H3468       H  0.09072175  0.22242069  0.89526887     0.08610
H3469       H  0.14322890  0.28277038  0.86585794     0.06630
Br3470     Br  0.16676988  0.24023815  0.85602004    -0.03980
C3471       C  0.10235793  0.49601868  0.87520671    -0.10620
C3472       C  0.11977805  0.48010417  0.88178485     0.05580
C3473       C  0.14077411  0.48920057  0.88919171    -0.04380
C3474       C  0.14347032  0.51327320  0.89077402    -0.08830
C3475       C  0.12565612  0.52891261  0.88485338     0.04700
C3476       C  0.10509849  0.51985902  0.87657957    -0.03860
Br3477     Br  0.07925182  0.53895370  0.86906337    -0.03550
H3478       H  0.08584110  0.49003671  0.86933166     0.08610
H3479       H  0.15950492  0.51984221  0.89736157     0.06630
Br3480     Br  0.16612009  0.46981828  0.89728050    -0.03980
C3481       C  0.01247689  0.50025986  0.89372801    -0.10620
C3482       C  0.00606902  0.47760839  0.88858541     0.05580
C3483       C  0.98339763  0.47273908  0.88204481    -0.04380
C3484       C  0.96720148  0.48990745  0.88250507    -0.08830
C3485       C  0.97290253  0.51214666  0.88925500     0.04700
C3486       C  0.99583586  0.51777365  0.89396655    -0.03860
Br3487     Br  0.00470733  0.54849269  0.90154102    -0.03550
H3488       H  0.03006700  0.50412391  0.89816828     0.08610
H3489       H  0.94977082  0.48568944  0.87768937     0.06630
Br3490     Br  0.97294787  0.44310822  0.87193841    -0.03980
C3491       C  0.10260970  0.37214371  0.00025687    -0.10620
C3492       C  0.12005189  0.37808845  0.98421296     0.05580
C3493       C  0.14145514  0.38463352  0.99304492    -0.04380
C3494       C  0.14448347  0.38616200  0.01707332    -0.08830
C3495       C  0.12665302  0.38080344  0.03281496     0.04700
C3496       C  0.10575514  0.37321561  0.02400624    -0.03860
Br3497     Br  0.08005849  0.36612246  0.04335471    -0.03550
H3498       H  0.08580664  0.36691579  0.99446873     0.08610
H3499       H  0.16079116  0.39217599  0.02352840     0.06630
Br3500     Br  0.16692747  0.39143039  0.97339253    -0.03980
C3501       C  0.98366798  0.37356549  0.97623621    -0.10620
C3502       C  0.00428270  0.38439438  0.98163849     0.05580
C3503       C  0.00769777  0.39358957  0.00366697    -0.04380
C3504       C  0.98963383  0.39299338  0.01963357    -0.08830
C3505       C  0.96848429  0.38335471  0.01345955     0.04700
C3506       C  0.96584717  0.37292192  0.99188077    -0.03860
Br3507     Br  0.93833189  0.35735303  0.98267653    -0.03550
H3508       H  0.98122093  0.36596785  0.95942739     0.08610
H3509       H  0.99179686  0.40066605  0.03642880     0.06630
Br3510     Br  0.03601509  0.40793193  0.01193601    -0.03980
C3511       C  0.61513609  0.38080419  0.77431467    -0.10620
C3512       C  0.63732604  0.38406828  0.78291080     0.05580
C3513       C  0.65541073  0.38748620  0.76688529    -0.04380
C3514       C  0.65120854  0.38738140  0.74311872    -0.08830
C3515       C  0.62907279  0.38418206  0.73453924     0.04700
C3516       C  0.61093788  0.38100844  0.75046466    -0.03860
Br3517     Br  0.58001482  0.37659106  0.74027278    -0.03550
H3518       H  0.60112410  0.37752752  0.78609611     0.08610
H3519       H  0.66512711  0.39107510  0.73133581     0.06630
Br3520     Br  0.68617484  0.39413594  0.77642262    -0.03980
C3521       C  0.77891895  0.45477659  0.87795035    -0.10620
C3522       C  0.75664330  0.46130446  0.88438599     0.05580
C3523       C  0.75210103  0.48458884  0.88938086    -0.04380
C3524       C  0.77008796  0.50043244  0.88883713    -0.08830
C3525       C  0.79259174  0.49352276  0.88337636     0.04700
C3526       C  0.79679981  0.47033120  0.87749361    -0.03860
Br3527     Br  0.82635805  0.45731181  0.87013037    -0.03550
H3528       H  0.78292015  0.43703121  0.87406841     0.08610
H3529       H  0.76649006  0.51818561  0.89312074     0.06630
Br3530     Br  0.72211799  0.49605103  0.89700512    -0.03980
C3531       C  0.64535608  0.49606951  0.89535217    -0.10620
C3532       C  0.63286481  0.47941608  0.88278645     0.05580
C3533       C  0.61536984  0.48728006  0.86816320    -0.04380
C3534       C  0.61152285  0.51096571  0.86563860    -0.08830
C3535       C  0.62485563  0.52765598  0.87720933     0.04700
C3536       C  0.64156522  0.51979964  0.89272029    -0.03860
Br3537     Br  0.66054543  0.54032050  0.90991703    -0.03550
H3538       H  0.65872443  0.49071436  0.90709755     0.08610
H3539       H  0.59820974  0.51630582  0.85382075     0.06630
Br3540     Br  0.59680226  0.46695310  0.85025441    -0.03980
C3541       C  0.60801761  0.37807835  0.99409530    -0.10620
C3542       C  0.62892074  0.37114784  0.98428449     0.05580
C3543       C  0.64677046  0.36399281  0.99922048    -0.04380
C3544       C  0.64392731  0.36462658  0.02313071    -0.08830
C3545       C  0.62323231  0.37178368  0.03297946     0.04700
C3546       C  0.60496503  0.37797703  0.01815888    -0.03860
Br3547     Br  0.57550633  0.38655403  0.03017838    -0.03550
H3548       H  0.59430841  0.38423024  0.98314223     0.08610
H3549       H  0.65760705  0.35835006  0.03406663     0.06630
Br3550     Br  0.67537630  0.35214371  0.98781183    -0.03980
C3551       C  0.75086519  0.39733714  0.99123700    -0.10620
C3552       C  0.74488958  0.37565859  0.98278707     0.05580
C3553       C  0.75716611  0.35607995  0.99000397    -0.04380
C3554       C  0.77610053  0.35858510  0.00438158    -0.08830
C3555       C  0.78279712  0.38041161  0.01173276     0.04700
C3556       C  0.76988049  0.39988691  0.00542471    -0.03860
Br3557     Br  0.77930194  0.43056024  0.01292079    -0.03550
H3558       H  0.74192392  0.41256712  0.98527193     0.08610
H3559       H  0.78589050  0.34355368  0.00944702     0.06630
Br3560     Br  0.74891794  0.32573366  0.98034720    -0.03980
C3561       C  0.61693015  0.26533630  0.86832586    -0.10620
C3562       C  0.62497059  0.27887053  0.88670351     0.05580
C3563       C  0.63481918  0.26754543  0.90563742    -0.04380
C3564       C  0.63622804  0.24351744  0.90616627    -0.08830
C3565       C  0.62798988  0.22987968  0.88800934     0.04700
C3566       C  0.61795399  0.24110252  0.86905904    -0.03860
Br3567     Br  0.60469051  0.22402628  0.84436836    -0.03550
H3568       H  0.61043245  0.27369254  0.85300922     0.08610
H3569       H  0.64325406  0.23530758  0.92134090     0.06630
Br3570     Br  0.64789345  0.28437352  0.93068535    -0.03980
C3571       C  0.98116969  0.12024677  0.87026069    -0.10620
C3572       C  0.97430757  0.13764766  0.88522765     0.05580
C3573       C  0.99182348  0.14902435  0.89810578    -0.04380
C3574       C  0.01520917  0.14448693  0.89393985    -0.08830
C3575       C  0.02207989  0.12811179  0.87781764     0.04700
C3576       C  0.00447170  0.11505709  0.86679304    -0.03860
Br3577     Br  0.01006173  0.08914902  0.84699627    -0.03550
H3578       H  0.96830859  0.11071374  0.86091039     0.08610
H3579       H  0.02809421  0.15413540  0.90313253     0.06630
Br3580     Br  0.98589627  0.17055750  0.92247729    -0.03980
C3581       C  0.87642672  0.11354197  0.99440688    -0.10620
C3582       C  0.86674316  0.13299821  0.98389889     0.05580
C3583       C  0.85783736  0.15056883  0.99820894    -0.04380
C3584       C  0.85923925  0.14886976  0.02219242    -0.08830
C3585       C  0.86918832  0.12966604  0.03275450     0.04700
C3586       C  0.87720318  0.11158610  0.01856174    -0.03860
Br3587     Br  0.88902962  0.08368875  0.03160902    -0.03550
H3588       H  0.88403345  0.10019347  0.98388710     0.08610
H3589       H  0.85147518  0.16216614  0.03268069     0.06630
Br3590     Br  0.84315303  0.17740118  0.98569243    -0.03980
C3591       C  0.85733499  0.25414660  0.99831525    -0.10620
C3592       C  0.87329190  0.25230814  0.98039097     0.05580
C3593       C  0.88984697  0.26952505  0.97708718    -0.04380
C3594       C  0.88971323  0.28878071  0.99114359    -0.08830
C3595       C  0.87340725  0.29097424  0.00861387     0.04700
C3596       C  0.85753382  0.27334602  0.01271795    -0.03860
Br3597     Br  0.83533182  0.27551190  0.03696863    -0.03550
H3598       H  0.84431941  0.24111627  0.00058130     0.08610
H3599       H  0.90224304  0.30219798  0.98831555     0.06630
Br3600     Br  0.91210252  0.26815813  0.95268918    -0.03980
C3601       C  0.94845621  0.28545036  0.89241946    -0.10620
C3602       C  0.95545918  0.26255513  0.88989729     0.05580
C3603       C  0.97902991  0.25728377  0.88870377    -0.04380
C3604       C  0.99507021  0.27509309  0.88949420    -0.08830
C3605       C  0.98787659  0.29805456  0.89154073     0.04700
C3606       C  0.96426399  0.30309803  0.89353719    -0.03860
Br3607     Br  0.95195378  0.33322305  0.89967130    -0.03550
H3608       H  0.93043545  0.28972653  0.89417668     0.08610
H3609       H  0.01316497  0.27103198  0.88812036     0.06630
Br3610     Br  0.99021755  0.22650040  0.88485495    -0.03980
C3611       C  0.75346986  0.24136850  0.89551880    -0.10620
C3612       C  0.77648864  0.24846693  0.89662188     0.05580
C3613       C  0.78159243  0.27210064  0.89816971    -0.04380
C3614       C  0.76407895  0.28775279  0.89951375    -0.08830
C3615       C  0.74110967  0.28112583  0.89819840     0.04700
C3616       C  0.73562615  0.25769990  0.89612322    -0.03860
Br3617     Br  0.70447547  0.24743467  0.89463485    -0.03550
H3618       H  0.74943279  0.22328617  0.89407707     0.08610
H3619       H  0.76887309  0.30569062  0.90020302     0.06630
Br3620     Br  0.81167202  0.28577629  0.89575310    -0.03980
C3621       C  0.73432703  0.12420502  0.86989118    -0.10620
C3622       C  0.72412027  0.13201045  0.89032090     0.05580
C3623       C  0.73878619  0.13851414  0.90857176    -0.04380
C3624       C  0.76270541  0.13675701  0.90648856    -0.08830
C3625       C  0.77299820  0.12906912  0.88616009     0.04700
C3626       C  0.75845866  0.12322487  0.86758011    -0.03860
Br3627     Br  0.77102333  0.11447325  0.83839503    -0.03550
H3628       H  0.72359821  0.11847312  0.85588416     0.08610
H3629       H  0.77337801  0.14296003  0.92035138     0.06630
Br3630     Br  0.72699765  0.15132115  0.93660987    -0.03980
C3631       C  0.88370885  0.12100144  0.77476291    -0.10620
C3632       C  0.87161895  0.14057609  0.78169272     0.05580
C3633       C  0.86117798  0.15432930  0.76404526    -0.04380
C3634       C  0.86457201  0.14922355  0.74065051    -0.08830
C3635       C  0.87764855  0.13031706  0.73381886     0.04700
C3636       C  0.88644063  0.11555541  0.75138368    -0.03860
Br3637     Br  0.90171591  0.08685680  0.74522386    -0.03550
H3638       H  0.89109284  0.10973740  0.78762367     0.08610
H3639       H  0.85741478  0.16053064  0.72769119     0.06630
Br3640     Br  0.84170126  0.18056564  0.76947512    -0.03980
C3641       C  0.85621055  0.51631091  0.65454942    -0.10620
C3642       C  0.86720188  0.52713499  0.63607294     0.05580
C3643       C  0.87761975  0.51324893  0.61907520    -0.04380
C3644       C  0.87761456  0.48911430  0.62118328    -0.08830
C3645       C  0.86671611  0.47833836  0.63982482     0.04700
C3646       C  0.85601267  0.49230397  0.65657759    -0.03860
Br3647     Br  0.84069834  0.47920216  0.68270005    -0.03550
H3648       H  0.84703273  0.52656974  0.66710087     0.08610
H3649       H  0.88675547  0.47882033  0.60864183     0.06630
Br3650     Br  0.89194331  0.52669123  0.59262383    -0.03980
C3651       C  0.78637032  0.39686508  0.78187001    -0.10620
C3652       C  0.78235423  0.38476373  0.76145806     0.05580
C3653       C  0.76157550  0.37266580  0.75905650    -0.04380
C3654       C  0.74674299  0.37082074  0.77788291    -0.08830
C3655       C  0.75216384  0.38088586  0.79911000     0.04700
C3656       C  0.77180843  0.39490579  0.80065345    -0.03860
Br3657     Br  0.78106822  0.41129523  0.82774374    -0.03550
H3658       H  0.80176420  0.40700576  0.78386003     0.08610
H3659       H  0.73139491  0.36057496  0.77613718     0.06630
Br3660     Br  0.75252685  0.35762602  0.73122636    -0.03980
C3661       C  0.75581727  0.38180636  0.66154637    -0.10620
C3662       C  0.77142424  0.38256030  0.64287271     0.05580
C3663       C  0.76239561  0.38354314  0.62050774    -0.04380
C3664       C  0.73844353  0.38412626  0.61736333    -0.08830
C3665       C  0.72302441  0.38326381  0.63614255     0.04700
C3666       C  0.73203589  0.38205277  0.65838082    -0.03860
Br3667     Br  0.71266843  0.38282409  0.68506998    -0.03550
H3668       H  0.76214929  0.38109662  0.67901230     0.08610
H3669       H  0.73176338  0.38570680  0.60007578     0.06630
Br3670     Br  0.78171224  0.38333935  0.59383651    -0.03980
C3671       C  0.85588395  0.47681631  0.77149215    -0.10620
C3672       C  0.87560070  0.47222632  0.75839176     0.05580
C3673       C  0.89597306  0.48438492  0.76288756    -0.04380
C3674       C  0.89640514  0.50033567  0.78071115    -0.08830
C3675       C  0.87710020  0.50381965  0.79463126     0.04700
C3676       C  0.85651623  0.49246593  0.78960189    -0.03860
Br3677     Br  0.82898241  0.49771226  0.80698412    -0.03550
H3678       H  0.84018605  0.46750713  0.76820230     0.08610
H3679       H  0.91238739  0.50883404  0.78475748     0.06630
Br3680     Br  0.92464563  0.47764226  0.74797355    -0.03980
C3681       C  0.98348895  0.38142071  0.62110620    -0.10620
C3682       C  0.97246399  0.37009087  0.63936097     0.05580
C3683       C  0.98625651  0.35865292  0.65573661    -0.04380
C3684       C  0.01029851  0.35904339  0.65408781    -0.08830
C3685       C  0.02141764  0.37065476  0.63612328     0.04700
C3686       C  0.00764611  0.38128260  0.61913110    -0.03860
Br3687     Br  0.02120775  0.39528880  0.59257728    -0.03550
H3688       H  0.97336399  0.39089050  0.60868415     0.08610
H3689       H  0.02036070  0.34942294  0.66645549     0.06630
Br3690     Br  0.97269608  0.34166369  0.68052657    -0.03980
C3691       C  0.95330195  0.38635188  0.78503419    -0.10620
C3692       C  0.96154922  0.38136526  0.76296821     0.05580
C3693       C  0.98521431  0.37882826  0.75924578    -0.04380
C3694       C  0.00014814  0.38033489  0.77794711    -0.08830
C3695       C  0.99159831  0.38440316  0.80017580     0.04700
C3696       C  0.96795463  0.38798912  0.80353639    -0.03860
Br3697     Br  0.95417929  0.39665735  0.83232053    -0.03550
H3698       H  0.93516363  0.38927199  0.78798430     0.08610
H3699       H  0.01838127  0.37792645  0.77520627     0.06630
Br3700     Br  0.99775051  0.37233400  0.72953621    -0.03980
C3701       C  0.87713031  0.26921377  0.76080078    -0.10620
C3702       C  0.86880274  0.29142974  0.76489767     0.05580
C3703       C  0.85920183  0.29708572  0.78638215    -0.04380
C3704       C  0.85921328  0.28090878  0.80383396    -0.08830
C3705       C  0.86816497  0.25893994  0.80011023     0.04700
C3706       C  0.87684107  0.25282773  0.77838866    -0.03860
Br3707     Br  0.88999551  0.22315622  0.77261134    -0.03550
H3708       H  0.88449810  0.26488698  0.74425740     0.08610
H3709       H  0.85190629  0.28543265  0.82037010     0.06630
Br3710     Br  0.84492155  0.32627094  0.79272306    -0.03980
C3711       C  0.89785280  0.24612814  0.62845316    -0.10620
C3712       C  0.88067789  0.22986624  0.63412162     0.05580
C3713       C  0.85932246  0.23832734  0.64171400    -0.04380
C3714       C  0.85601817  0.26217395  0.64440204    -0.08830
C3715       C  0.87347547  0.27821458  0.63927495     0.04700
C3716       C  0.89443679  0.26986371  0.63083211    -0.03860
Br3717     Br  0.91968343  0.28982597  0.62408666    -0.03550
H3718       H  0.91449481  0.24042551  0.62241623     0.08610
H3719       H  0.83967129  0.26824034  0.65092197     0.06630
Br3720     Br  0.83396064  0.21848892  0.64813391    -0.03980
C3721       C  0.62996363  0.77018981  0.87419176    -0.10620
C3722       C  0.60843838  0.77688861  0.88264388     0.05580
C3723       C  0.59271126  0.75904511  0.88874658    -0.04380
C3724       C  0.59854967  0.73576008  0.88579427    -0.08830
C3725       C  0.61971996  0.72921222  0.87664502     0.04700
C3726       C  0.63572318  0.74684711  0.87128329    -0.03860
Br3727     Br  0.66630208  0.74041906  0.86063246    -0.03550
H3728       H  0.64251632  0.78317460  0.86990930     0.08610
H3729       H  0.58597537  0.72268166  0.88973754     0.06630
Br3730     Br  0.56218122  0.76421960  0.90024573    -0.03980
C3731       C  0.60431875  0.88951272  0.76695723    -0.10620
C3732       C  0.61406624  0.87442838  0.78352221     0.05580
C3733       C  0.62726421  0.85592200  0.77535102    -0.04380
C3734       C  0.62989341  0.85257630  0.75153626    -0.08830
C3735       C  0.61958186  0.86724838  0.73491085     0.04700
C3736       C  0.60687416  0.88613006  0.74311202    -0.03860
Br3737     Br  0.59214725  0.90764560  0.72292446    -0.03550
H3738       H  0.59414623  0.90407925  0.77253767     0.08610
H3739       H  0.63993375  0.83787589  0.74609392     0.06630
Br3740     Br  0.64102843  0.83382483  0.79559097    -0.03980
C3741       C  0.59819046  0.99395558  0.89202105    -0.10620
C3742       C  0.61767498  0.97944453  0.89026245     0.05580
C3743       C  0.63929871  0.98986251  0.88835708    -0.04380
C3744       C  0.64101771  0.01406597  0.88865862    -0.08830
C3745       C  0.62137815  0.02840714  0.88994387     0.04700
C3746       C  0.59984220  0.01795571  0.89163878    -0.03860
Br3747     Br  0.57221954  0.03570126  0.89483819    -0.03550
H3748       H  0.58123090  0.98650793  0.89319229     0.08610
H3749       H  0.65787768  0.02178794  0.88818437     0.06630
Br3750     Br  0.66660053  0.97192982  0.88423689    -0.03980
C3751       C  0.60949499  0.86761434  0.02766430    -0.10620
C3752       C  0.62666112  0.88261866  0.03462691     0.05580
C3753       C  0.64139208  0.89185273  0.01728366    -0.04380
C3754       C  0.63680116  0.88838383  0.99378299    -0.08830
C3755       C  0.61832625  0.87493105  0.98674227     0.04700
C3756       C  0.60551008  0.86327572  0.00428434    -0.03860
Br3757     Br  0.58217986  0.84066822  0.99857402    -0.03550
H3758       H  0.59860899  0.85964549  0.04047622     0.08610
H3759       H  0.64749211  0.89663476  0.98099504     0.06630
Br3760     Br  0.66880597  0.90875061  0.02404312    -0.03980
C3761       C  0.37976545  0.76235463  0.10857004    -0.10620
C3762       C  0.36994546  0.77880495  0.12372940     0.05580
C3763       C  0.35750940  0.77043931  0.14270084    -0.04380
C3764       C  0.35471647  0.74658999  0.14570014    -0.08830
C3765       C  0.36404508  0.73024603  0.13018448     0.04700
C3766       C  0.37696607  0.73855153  0.11157594    -0.03860
Br3767     Br  0.39000410  0.71855113  0.08883342    -0.03550
H3768       H  0.38954217  0.76794004  0.09376897     0.08610
H3769       H  0.34477565  0.74081479  0.16032659     0.06630
Br3770     Br  0.34376736  0.79039596  0.16504279    -0.03980
C3771       C  0.23867684  0.86288698  0.14488320    -0.10620
C3772       C  0.22251504  0.87097463  0.12854129     0.05580
C3773       C  0.23099159  0.88266001  0.10920885    -0.04380
C3774       C  0.25480741  0.88548841  0.10635197    -0.08830
C3775       C  0.27109364  0.87685872  0.12238034     0.04700
C3776       C  0.26251620  0.86566241  0.14203027    -0.03860
Br3777     Br  0.28218184  0.85358030  0.16551359    -0.03550
H3778       H  0.23274787  0.85381903  0.16001770     0.08610
H3779       H  0.26055193  0.89424511  0.09097643     0.06630
Br3780     Br  0.21115995  0.89358973  0.08529074    -0.03980
C3781       C  0.50770780  0.90485152  0.12049588    -0.10620
C3782       C  0.52132136  0.88785457  0.13105743     0.05580
C3783       C  0.51010193  0.87007967  0.14307399    -0.04380
C3784       C  0.48590077  0.86906021  0.14343262    -0.08830
C3785       C  0.47235803  0.88607646  0.13269277     0.04700
C3786       C  0.48367483  0.90398670  0.12107037    -0.03860
Br3787     Br  0.46684136  0.92707181  0.10454664    -0.03550
H3788       H  0.51589081  0.91923839  0.11201115     0.08610
H3789       H  0.47762608  0.85452933  0.15155908     0.06630
Br3790     Br  0.52711330  0.84749311  0.15999891    -0.03980
C3791       C  0.50785093  0.88355326  0.00148935    -0.10620
C3792       C  0.50268198  0.89550021  0.98104773     0.05580
C3793       C  0.48271654  0.90934332  0.98031687    -0.04380
C3794       C  0.46771634  0.90915360  0.99865244    -0.08830
C3795       C  0.47093124  0.89455559  0.01746153     0.04700
C3796       C  0.49205362  0.88288119  0.01972909    -0.03860
Br3797     Br  0.49981170  0.86485752  0.04624115    -0.03550
H3798       H  0.52342314  0.87340946  0.00270610     0.08610
H3799       H  0.45190324  0.91866709  0.99674897     0.06630
Br3800     Br  0.47174049  0.92644912  0.95418616    -0.03980
C3801       C  0.36580005  0.99308122  0.14514389    -0.10620
C3802       C  0.37928914  0.98058788  0.12941623     0.05580
C3803       C  0.39277095  0.99304559  0.11355867    -0.04380
C3804       C  0.39277367  0.01714648  0.11365454    -0.08830
C3805       C  0.37922521  0.02969422  0.12918151     0.04700
C3806       C  0.36603525  0.01734859  0.14538354    -0.03860
Br3807     Br  0.34858012  0.03305588  0.16850357    -0.03550
H3808       H  0.35450528  0.98399274  0.15678821     0.08610
H3809       H  0.40401567  0.02618247  0.10190418     0.06630
Br3810     Br  0.41122892  0.97769702  0.09088537    -0.03980
C3811       C  0.26553319  0.13456945  0.87121151    -0.10620
C3812       C  0.27204111  0.11428614  0.88245011     0.05580
C3813       C  0.25407262  0.09997252  0.89115053    -0.04380
C3814       C  0.23086006  0.10570129  0.88770621    -0.08830
C3815       C  0.22447428  0.12549508  0.87573999     0.04700
C3816       C  0.24228533  0.14035301  0.86798549    -0.03860
Br3817     Br  0.23648036  0.16953113  0.85353852    -0.03550
H3818       H  0.27861876  0.14614492  0.86492382     0.08610
H3819       H  0.21768261  0.09409042  0.89374677     0.06630
Br3820     Br  0.25889682  0.07168114  0.90749476    -0.03980
C3821       C  0.37431353  0.13804506  0.74763040    -0.10620
C3822       C  0.36760691  0.11985558  0.73316466     0.05580
C3823       C  0.36041813  0.09925854  0.74352033    -0.04380
C3824       C  0.36061353  0.09689764  0.76758186    -0.08830
C3825       C  0.36744400  0.11496879  0.78210724     0.04700
C3826       C  0.37456458  0.13566891  0.77177995    -0.03860
Br3827     Br  0.38574198  0.16071444  0.78981992    -0.03550
H3828       H  0.37893892  0.15441195  0.74009173     0.08610
H3829       H  0.35531569  0.08073761  0.77508234     0.06630
Br3830     Br  0.34865206  0.07449014  0.72539860    -0.03980
C3831       C  0.51308043  0.12965749  0.86963656    -0.10620
C3832       C  0.52144630  0.12730684  0.89210400     0.05580
C3833       C  0.50510413  0.12551128  0.91020650    -0.04380
C3834       C  0.48144329  0.12659388  0.90586316    -0.08830
C3835       C  0.47305408  0.12863177  0.88350562     0.04700
C3836       C  0.48923768  0.12996293  0.86526395    -0.03860
Br3837     Br  0.47944349  0.13188657  0.83386634    -0.03550
H3838       H  0.52502573  0.13152526  0.85549201     0.08610
H3839       H  0.46952185  0.12401870  0.91992784     0.06630
Br3840     Br  0.51379523  0.11909494  0.94133150    -0.03980
C3841       C  0.48277856  0.00457719  0.91337593    -0.10620
C3842       C  0.47845781  0.01700758  0.89316040     0.05580
C3843       C  0.49408616  0.01510974  0.87461991    -0.04380
C3844       C  0.51095444  0.99800019  0.87514656    -0.08830
C3845       C  0.51279524  0.98321582  0.89406165     0.04700
C3846       C  0.50026302  0.98815761  0.91408585    -0.03860
Br3847     Br  0.50670006  0.97306898  0.94260497    -0.03550
H3848       H  0.47182364  0.00682078  0.92827209     0.08610
H3849       H  0.52119369  0.99494843  0.85989581     0.06630
Br3850     Br  0.49191999  0.03294475  0.84691653    -0.03980
C3851       C  0.39221159  0.11097316  0.99612547    -0.10620
C3852       C  0.37967645  0.12699175  0.98300330     0.05580
C3853       C  0.36654888  0.14359747  0.99486029    -0.04380
C3854       C  0.36648720  0.14413482  0.01915110    -0.08830
C3855       C  0.37867798  0.12769345  0.03217183     0.04700
C3856       C  0.39189794  0.11129139  0.02022895    -0.03860
Br3857     Br  0.41035779  0.08915880  0.03628360    -0.03550
H3858       H  0.40164766  0.09741173  0.98749932     0.08610
H3859       H  0.35719640  0.15770199  0.02790092     0.06630
Br3860     Br  0.34775856  0.16516703  0.97851350    -0.03980
C3861       C  0.40674676  0.99902019  0.98844528    -0.10620
C3862       C  0.38845881  0.01463224  0.98679802     0.05580
C3863       C  0.37172122  0.01493314  0.00444645    -0.04380
C3864       C  0.37128099  0.99705582  0.02054101    -0.08830
C3865       C  0.38759863  0.97930795  0.01966816     0.04700
C3866       C  0.40661554  0.98167773  0.00495581    -0.03860
Br3867     Br  0.43268965  0.96170478  0.00636880    -0.03550
H3868       H  0.42054658  0.99941354  0.97595396     0.08610
H3869       H  0.35710932  0.99612841  0.03256037     0.06630
Br3870     Br  0.34781021  0.03761760  0.00668050    -0.03980
C3871       C  0.39556325  0.63207592  0.77650251    -0.10620
C3872       C  0.37391756  0.63927179  0.78368758     0.05580
C3873       C  0.35716436  0.64408147  0.76654768    -0.04380
C3874       C  0.36246643  0.64193890  0.74298320    -0.08830
C3875       C  0.38434134  0.63501483  0.73570431     0.04700
C3876       C  0.40100697  0.63014117  0.75309865    -0.03860
Br3877     Br  0.43237528  0.62185962  0.74716339    -0.03550
H3878       H  0.40875631  0.62889317  0.78921268     0.08610
H3879       H  0.34927625  0.64532952  0.73034216     0.06630
Br3880     Br  0.32621598  0.65267713  0.77406636    -0.03980
C3881       C  0.44879163  0.78529006  0.89275261    -0.10620
C3882       C  0.45571594  0.76269490  0.88814868     0.05580
C3883       C  0.47906699  0.75774002  0.88444400    -0.04380
C3884       C  0.49496539  0.77568018  0.88467272    -0.08830
C3885       C  0.48777999  0.79836602  0.88873331     0.04700
C3886       C  0.46452263  0.80301319  0.89339609    -0.03860
Br3887     Br  0.45309621  0.83261820  0.90276772    -0.03550
H3888       H  0.43098532  0.78919531  0.89648854     0.08610
H3889       H  0.51286845  0.77198634  0.88132011     0.06630
Br3890     Br  0.48988477  0.72725964  0.87796550    -0.03980
C3891       C  0.48917061  0.63937849  0.89824238    -0.10620
C3892       C  0.47338949  0.63760320  0.87992802     0.05580
C3893       C  0.48195233  0.63351449  0.85780361    -0.04380
C3894       C  0.50568131  0.63153934  0.85426773    -0.08830
C3895       C  0.52166028  0.63342178  0.87246471     0.04700
C3896       C  0.51300677  0.63704626  0.89477608    -0.03860
Br3897     Br  0.53258858  0.63781475  0.92115581    -0.03550
H3898       H  0.48288468  0.64278246  0.91543604     0.08610
H3899       H  0.51167125  0.62862648  0.83690435     0.06630
Br3900     Br  0.46204825  0.63236324  0.83163153    -0.03980
C3901       C  0.35977970  0.61478822  0.99136238    -0.10620
C3902       C  0.37808870  0.62842140  0.98448353     0.05580
C3903       C  0.39300575  0.63708225  0.00176662    -0.04380
C3904       C  0.38741698  0.63495379  0.02515800    -0.08830
C3905       C  0.36780374  0.62312277  0.03210390     0.04700
C3906       C  0.35487753  0.61146927  0.01473018    -0.03860
Br3907     Br  0.33033367  0.59017393  0.02052595    -0.03550
H3908       H  0.34868079  0.60731320  0.97850789     0.08610
H3909       H  0.39834424  0.64281915  0.03791008     0.06630
Br3910     Br  0.42180496  0.65152012  0.99484786    -0.03980
C3911       C  0.39426024  0.76302952  0.98502099    -0.10620
C3912       C  0.37323724  0.75186659  0.98202071     0.05580
C3913       C  0.35364978  0.75975454  0.99378164    -0.04380
C3914       C  0.35513929  0.77909605  0.00785785    -0.08830
C3915       C  0.37594305  0.79075067  0.00999689     0.04700
C3916       C  0.39565674  0.78259394  0.99869805    -0.03860
Br3917     Br  0.42408384  0.79916215  0.99948773    -0.03550
H3918       H  0.40922717  0.75753864  0.97536250     0.08610
H3919       H  0.33998979  0.78533380  0.01671631     0.06630
Br3920     Br  0.32455787  0.74493226  0.99061805    -0.03980
C3921       C  0.25815269  0.63101369  0.86831575    -0.10620
C3922       C  0.27324235  0.62942379  0.88731861     0.05580
C3923       C  0.26361470  0.62833412  0.90935624    -0.04380
C3924       C  0.23973149  0.62925876  0.91210644    -0.08830
C3925       C  0.22449163  0.63115487  0.89322076     0.04700
C3926       C  0.23409134  0.63170415  0.87104224    -0.03860
Br3927     Br  0.21536886  0.63304579  0.84406815    -0.03550
H3928       H  0.26522668  0.63265401  0.85116565     0.08610
H3929       H  0.23303603  0.62868716  0.92946992     0.06630
Br3930     Br  0.28234302  0.62782836  0.93640608    -0.03980
C3931       C  0.13886119  0.98912152  0.85736701    -0.10620
C3932       C  0.13354336  0.97933912  0.87864785     0.05580
C3933       C  0.12820365  0.99412007  0.89721647    -0.04380
C3934       C  0.12748379  0.01811722  0.89409225    -0.08830
C3935       C  0.13261224  0.02789053  0.87267255     0.04700
C3936       C  0.13860034  0.01301601  0.85431309    -0.03860
Br3937     Br  0.14776563  0.02446065  0.82473731    -0.03550
H3938       H  0.14429889  0.97818755  0.84330928     0.08610
H3939       H  0.12221328  0.02904899  0.90820079     0.06630
Br3940     Br  0.12147980  0.98211747  0.92718089    -0.03980
C3941       C  0.13294216  0.89434528  0.00009873    -0.10620
C3942       C  0.12366369  0.87931981  0.98341867     0.05580
C3943       C  0.11038715  0.86081402  0.99118783    -0.04380
C3944       C  0.10800199  0.85687091  0.01490394    -0.08830
C3945       C  0.11869344  0.87095287  0.03162534     0.04700
C3946       C  0.13071316  0.89034606  0.02380301    -0.03860
Br3947     Br  0.14526243  0.91159534  0.04420636    -0.03550
H3948       H  0.14291550  0.90904997  0.99468525     0.08610
H3949       H  0.09817257  0.84203279  0.02017224     0.06630
Br3950     Br  0.09651223  0.83938571  0.97052122    -0.03980
C3951       C  0.26506081  0.87277256  0.01604990    -0.10620
C3952       C  0.28560559  0.88208142  0.00759608     0.05580
C3953       C  0.28654539  0.89122469  0.98527831    -0.04380
C3954       C  0.26744315  0.88981660  0.97131192    -0.08830
C3955       C  0.24732446  0.87934030  0.97913492     0.04700
C3956       C  0.24584398  0.87117503  0.00177553    -0.03860
Br3957     Br  0.21860567  0.85683004  0.01322951    -0.03550
H3958       H  0.26421160  0.86616444  0.03344233     0.08610
H3959       H  0.26845598  0.89651011  0.95394288     0.06630
Br3960     Br  0.31305589  0.90658721  0.97310249    -0.03980
C3961       C  0.25559453  0.97926077  0.90368756    -0.10620
C3962       C  0.25635390  0.96252824  0.88640466     0.05580
C3963       C  0.27430762  0.96302647  0.87012984    -0.04380
C3964       C  0.29155937  0.97945660  0.87205226    -0.08830
C3965       C  0.29141595  0.99549307  0.89001321     0.04700
C3966       C  0.27303366  0.99545208  0.90585638    -0.03860
Br3967     Br  0.27189782  0.01475101  0.93256077    -0.03550
H3968       H  0.24212821  0.97886852  0.91653084     0.08610
H3969       H  0.30541806  0.97942594  0.85962276     0.06630
Br3970     Br  0.27630984  0.94194398  0.84482781    -0.03980
C3971       C  0.25401630  0.74221303  0.89968693    -0.10620
C3972       C  0.27625182  0.74865351  0.89303845     0.05580
C3973       C  0.28051924  0.77109549  0.88514861    -0.04380
C3974       C  0.26312120  0.78709175  0.88555356    -0.08830
C3975       C  0.24126732  0.78130317  0.89342432     0.04700
C3976       C  0.23629108  0.75858367  0.89981871    -0.03860
Br3977     Br  0.20615232  0.74969869  0.90944641    -0.03550
H3978       H  0.25063239  0.72477979  0.90522727     0.08610
H3979       H  0.26676563  0.80437362  0.87963719     0.06630
Br3980     Br  0.30943716  0.78124370  0.87275821    -0.03980
C3981       C  0.11976024  0.76497101  0.86872797    -0.10620
C3982       C  0.12340766  0.77963720  0.88768691     0.05580
C3983       C  0.12722467  0.76951156  0.90927123    -0.04380
C3984       C  0.12730013  0.74550182  0.91161445    -0.08830
C3985       C  0.12388592  0.73075167  0.89268744     0.04700
C3986       C  0.11965786  0.74083440  0.87110310    -0.03860
Br3987     Br  0.11266695  0.72254134  0.84472623    -0.03550
H3988       H  0.11764990  0.77236748  0.85176791     0.08610
H3989       H  0.13013373  0.73824107  0.92853159     0.06630
Br3990     Br  0.13437522  0.78772601  0.93570849    -0.03980
C3991       C  0.14172370  0.86521184  0.76599742    -0.10620
C3992       C  0.13495575  0.88200529  0.78228587     0.05580
C3993       C  0.12505317  0.90242064  0.77402404    -0.04380
C3994       C  0.12223011  0.90568744  0.75029345    -0.08830
C3995       C  0.12905060  0.88900957  0.73386151     0.04700
C3996       C  0.13884536  0.86845561  0.74215475    -0.03860
Br3997     Br  0.14836296  0.84410157  0.72211168    -0.03550
H3998       H  0.14951248  0.84932681  0.77184443     0.08610
H3999       H  0.11479319  0.92182783  0.74473351     0.06630
Br4000     Br  0.11658334  0.92724637  0.79399509    -0.03980
C4001       C  0.35763326  0.76213193  0.64625895    -0.10620
C4002       C  0.37225523  0.77821920  0.63533591     0.05580
C4003       C  0.38921100  0.76985695  0.62041253    -0.04380
C4004       C  0.39239923  0.74606723  0.61822660    -0.08830
C4005       C  0.37909683  0.72996692  0.63080534     0.04700
C4006       C  0.36096259  0.73837077  0.64431160    -0.03860
Br4007     Br  0.34095490  0.71874966  0.66159102    -0.03550
H4008       H  0.34395004  0.76803728  0.65741698     0.08610
H4009       H  0.40612751  0.74025223  0.60709250     0.06630
Br4010     Br  0.40954220  0.78975105  0.60388871    -0.03980
C4011       C  0.48969807  0.89344232  0.64080076    -0.10620
C4012       C  0.47351502  0.87634272  0.63496937     0.05580
C4013       C  0.48182444  0.85526791  0.62674019    -0.04380
C4014       C  0.50557259  0.85133362  0.62550179    -0.08830
C4015       C  0.52187496  0.86803593  0.63229097     0.04700
C4016       C  0.51351373  0.88955960  0.63949653    -0.03860
Br4017     Br  0.53343849  0.91431972  0.64768807    -0.03550
H4018       H  0.48374464  0.90990380  0.64715971     0.08610
H4019       H  0.51122684  0.83461893  0.61959656     0.06630
Br4020     Br  0.46174313  0.83054898  0.61882077    -0.03980
C4021       C  0.37535795  0.76426867  0.75817103    -0.10620
C4022       C  0.37394434  0.78787571  0.76266064     0.05580
C4023       C  0.37020621  0.79563305  0.78534938    -0.04380
C4024       C  0.36920309  0.77992831  0.80310432    -0.08830
C4025       C  0.37104966  0.75639455  0.79890701     0.04700
C4026       C  0.37385160  0.74837839  0.77620963    -0.03860
Br4027     Br  0.37682366  0.71633073  0.76904128    -0.03550
H4028       H  0.37802188  0.75825540  0.74076388     0.08610
H4029       H  0.36620815  0.78625278  0.82036080     0.06630
Br4030     Br  0.36443377  0.82718451  0.79367316    -0.03980
C4031       C  0.50426408  0.88058532  0.77450495    -0.10620
C4032       C  0.49506416  0.88398619  0.79661654     0.05580
C4033       C  0.47116861  0.88617618  0.79953780    -0.04380
C4034       C  0.45701659  0.88371521  0.78079654    -0.08830
C4035       C  0.46593120  0.87928975  0.75889586     0.04700
C4036       C  0.48974327  0.87828136  0.75551176    -0.03860
Br4037     Br  0.50287419  0.87287773  0.72578732    -0.03550
H4038       H  0.52264582  0.87926802  0.77209778     0.08610
H4039       H  0.43869138  0.88556583  0.78342551     0.06630
Br4040     Br  0.45613376  0.89393420  0.82802558    -0.03980
C4041       C  0.38853690  0.99479534  0.64700806    -0.10620
C4042       C  0.37223684  0.97878612  0.63884992     0.05580
C4043       C  0.35338100  0.98720096  0.62649167    -0.04380
C4044       C  0.35059501  0.01096602  0.62355710    -0.08830
C4045       C  0.36630811  0.02715083  0.63263140     0.04700
C4046       C  0.38580884  0.01861663  0.64400444    -0.03860
Br4047     Br  0.40926227  0.03826901  0.65585000    -0.03550
H4048       H  0.40346783  0.98877571  0.65631059     0.08610
H4049       H  0.33549254  0.01672546  0.61439827     0.06630
Br4050     Br  0.33005910  0.96740174  0.61456939    -0.03980
C4051       C  0.37742423  0.98564961  0.76062958    -0.10620
C4052       C  0.37739990  0.96231729  0.76657553     0.05580
C4053       C  0.37758208  0.95588162  0.79002388    -0.04380
C4054       C  0.37691751  0.97264354  0.80677511    -0.08830
C4055       C  0.37703451  0.99595728  0.80104625     0.04700
C4056       C  0.37737316  0.00255088  0.77769356    -0.03860
Br4057     Br  0.37728454  0.03398717  0.76791449    -0.03550
H4058       H  0.37740161  0.99072840  0.74271416     0.08610
H4059       H  0.37736616  0.96721205  0.82458123     0.06630
Br4060     Br  0.38106235  0.92489216  0.80130153    -0.03980
C4061       C  0.29633650  0.87176022  0.78839834    -0.10620
C4062       C  0.28918673  0.87481649  0.76566415     0.05580
C4063       C  0.26562246  0.87604770  0.76062250    -0.04380
C4064       C  0.24965004  0.87457604  0.77855132    -0.08830
C4065       C  0.25700360  0.87186867  0.80135170     0.04700
C4066       C  0.28064331  0.87001233  0.80614057    -0.03860
Br4067     Br  0.29318687  0.86321021  0.83598753    -0.03550
H4068       H  0.31438998  0.87000377  0.79244829     0.08610
H4069       H  0.23152240  0.87595215  0.77474309     0.06630
Br4070     Br  0.25448087  0.88093375  0.73003560    -0.03980
C4071       C  0.26568314  0.88991904  0.62312133    -0.10620
C4072       C  0.27228635  0.87607453  0.64158744     0.05580
C4073       C  0.25460921  0.86425095  0.65392426    -0.04380
C4074       C  0.23136001  0.86860005  0.64928580    -0.08830
C4075       C  0.22480771  0.88379800  0.63193890     0.04700
C4076       C  0.24243060  0.89344557  0.61787535    -0.03860
Br4077     Br  0.23658411  0.91105630  0.59048791    -0.03550
H4078       H  0.27866936  0.89828900  0.61278401     0.08610
H4079       H  0.21832405  0.86041596  0.65971371     0.06630
Br4080     Br  0.25998615  0.84128105  0.67715690    -0.03980
loop_ 
_geom_bond_atom_site_label_1 
_geom_bond_atom_site_label_2 
_geom_bond_distance 
_geom_bond_site_symmetry_2 
_ccdc_geom_bond_type 
N1            N2   1.311       .  A
N1            N7   1.306       .  A
N1          Mn30   2.160       .  S
N2            C9   1.349       .  A
N3            N5   1.306       .  A
N3            N4   1.323       .  A
N3          Mn19   2.186       .  S
N4           C10   1.356       .  A
N5            N6   1.309       .  A
N5          Mn30   2.141       .  S
N6           C10   1.343       .  A
N7            N8   1.321       .  A
N7          Mn19   2.168       .  S
N8            C9   1.354       .  A
C9         C4062   1.463       .  S
C10        C4022   1.460       .  S
N11          N17   1.319       .  A
N11          N12   1.336       .  A
N11         Mn41   2.297       .  S
N12          C20   1.373       .  A
N13          N14   1.307       .  A
N13          N15   1.319       .  A
N13         Mn19   2.138       .  S
N14          C21   1.333       .  A
N15          N16   1.338       .  A
N15         Mn41   2.312       .  S
N16          C21   1.376       .  A
N17          N18   1.305       .  A
N17         Mn19   2.130       .  S
N18          C20   1.334       .  A
Mn19        Cl43   2.529       .  S
C20        C4002   1.492       .  S
C21        C4072   1.503       .  S
N22          N23   1.308       .  A
N22          N28   1.307       .  A
N22         Mn30   2.148       .  S
N23          C31   1.346       .  A
N24          N26   1.307       .  A
N24          N25   1.324       .  A
N24         Mn42   2.187       .  S
N25          C32   1.358       .  A
N26          N27   1.307       .  A
N26         Mn30   2.142       .  S
N27          C32   1.341       .  A
N28          N29   1.322       .  A
N28         Mn42   2.179       .  S
N29          C31   1.355       .  A
Mn30        Cl43   2.504       .  S
C31        C4035   1.458       .  S
C32        C4052   1.464       .  S
N33          N34   1.335       .  A
N33          N39   1.321       .  A
N33         Mn41   2.305       .  S
N34          C44   1.372       .  A
N35          N36   1.309       .  A
N35          N37   1.320       .  A
N35         Mn42   2.142       .  S
N36          C45   1.336       .  A
N37          N38   1.337       .  A
N37         Mn41   2.311       .  S
N38          C45   1.375       .  A
N39          N40   1.309       .  A
N39         Mn42   2.142       .  S
N40          C44   1.337       .  A
Mn41        Cl43   2.547       .  S
Mn42        Cl43   2.539       .  S
C44        C4042   1.494       .  S
C45        C4012   1.495       .  S
N46          N47   1.321       .  A
N46          N52   1.309       .  A
N46         Mn75   2.180       .  S
N47          C54   1.354       .  A
N48          N50   1.308       .  A
N48          N49   1.310       .  A
N48         Mn64   2.160       .  S
N49          C55   1.349       .  A
N50          N51   1.320       .  A
N50         Mn75   2.175       .  S
N51          C55   1.353       .  A
N52          N53   1.311       .  A
N52         Mn64   2.158       .  S
N53          C54   1.345       .  A
C54        C4065   1.463       .  S
C55        C3975   1.451       .  S
N56          N62   1.307       .  A
N56          N57   1.322       .  A
N56         Mn86   2.187       .  S
N57          C65   1.355       .  A
N58          N59   1.316       .  A
N58          N60   1.310       .  A
N58         Mn64   2.176       .  S
N59          C66   1.350       .  A
N60          N61   1.320       .  A
N60         Mn86   2.188       .  S
N61          C66   1.355       .  A
N62          N63   1.311       .  A
N62         Mn64   2.152       .  S
N63          C65   1.347       .  A
Mn64        Cl88   2.525       .  S
C65        C3955   1.454       .  S
C66        C3962   1.473       .  S
N67          N68   1.310       .  A
N67          N73   1.318       .  A
N67         Mn75   2.137       .  S
N68          C76   1.334       .  A
N69          N71   1.319       .  A
N69          N70   1.335       .  A
N69         Mn87   2.309       .  S
N70          C77   1.372       .  A
N71          N72   1.313       .  A
N71         Mn75   2.150       .  S
N72          C77   1.340       .  A
N73          N74   1.337       .  A
N73         Mn87   2.306       .  S
N74          C76   1.374       .  A
Mn75        Cl88   2.541       .  S
C76        C3982   1.487       .  S
C77        C3992   1.500       .  S
N78          N79   1.312       .  A
N78          N84   1.321       .  A
N78         Mn86   2.152       .  S
N79          C89   1.338       .  A
N80          N81   1.337       .  A
N80          N82   1.319       .  A
N80         Mn87   2.306       .  S
N81          C90   1.374       .  A
N82          N83   1.308       .  A
N82         Mn86   2.141       .  S
N83          C90   1.336       .  A
N84          N85   1.334       .  A
N84         Mn87   2.296       .  S
N85          C89   1.369       .  A
Mn86        Cl88   2.534       .  S
Mn87        Cl88   2.546       .  S
C89        C3932   1.482       .  S
C90        C3942   1.498       .  S
N91          N92   1.321       .  A
N91          N97   1.310       .  A
N91        Mn120   2.182       .  S
N92          C99   1.354       .  A
N93          N95   1.310       .  A
N93          N94   1.316       .  A
N93        Mn109   2.170       .  S
N94         C100   1.349       .  A
N95          N96   1.321       .  A
N95        Mn120   2.192       .  S
N96         C100   1.354       .  A
N97          N98   1.311       .  A
N97        Mn109   2.164       .  S
N98          C99   1.348       .  A
C99        C3882   1.463       .  S
C100       C3912   1.460       .  S
N101        N107   1.309       .  A
N101        N102   1.319       .  A
N101       Mn131   2.176       .  S
N102        C110   1.352       .  A
N103        N104   1.313       .  A
N103        N105   1.309       .  A
N103       Mn109   2.173       .  S
N104        C111   1.351       .  A
N105        N106   1.318       .  A
N105       Mn131   2.158       .  S
N106        C111   1.350       .  A
N107        N108   1.311       .  A
N107       Mn109   2.159       .  S
N108        C110   1.348       .  A
Mn109      Cl133   2.523       .  S
C110       C3972   1.451       .  S
C111       C4025   1.460       .  S
N112        N113   1.306       .  A
N112        N118   1.319       .  A
N112       Mn120   2.132       .  S
N113        C121   1.332       .  A
N114        N116   1.320       .  A
N114        N115   1.334       .  A
N114       Mn132   2.297       .  S
N115        C122   1.370       .  A
N116        N117   1.313       .  A
N116       Mn120   2.151       .  S
N117        C122   1.338       .  A
N118        N119   1.338       .  A
N118       Mn132   2.307       .  S
N119        C121   1.375       .  A
Mn120      Cl133   2.524       .  S
C121       C3902   1.492       .  S
C122       C3892   1.489       .  S
N123        N124   1.312       .  A
N123        N129   1.318       .  A
N123       Mn131   2.140       .  S
N124        C134   1.337       .  A
N125        N126   1.339       .  A
N125        N127   1.317       .  A
N125       Mn132   2.318       .  S
N126        C135   1.377       .  A
N127        N128   1.307       .  A
N127       Mn131   2.118       .  S
N128        C135   1.331       .  A
N129        N130   1.336       .  A
N129       Mn132   2.311       .  S
N130        C134   1.374       .  A
Mn131      Cl133   2.528       .  S
Mn132      Cl133   2.570       .  S
C134       C3872   1.497       .  S
C135       C3922   1.489       .  S
N136        N137   1.319       .  A
N136        N142   1.311       .  A
N136       Mn165   2.180       .  S
N137        C144   1.351       .  A
N138        N140   1.311       .  A
N138        N139   1.318       .  A
N138       Mn154   2.187       .  S
N139        C145   1.355       .  A
N140        N141   1.319       .  A
N140       Mn165   2.185       .  S
N141        C145   1.351       .  A
N142        N143   1.319       .  A
N142       Mn154   2.190       .  S
N143        C144   1.353       .  A
C144       C3965   1.474   1_545  S
C145       C3862   1.477       .  S
N146        N152   1.312       .  A
N146        N147   1.318       .  A
N146       Mn176   2.185       .  S
N147        C155   1.350       .  A
N148        N149   1.313       .  A
N148        N150   1.310       .  A
N148       Mn154   2.176       .  S
N149        C156   1.352       .  A
N150        N151   1.318       .  A
N150       Mn176   2.166       .  S
N151        C156   1.350       .  A
N152        N153   1.319       .  A
N152       Mn154   2.193       .  S
N153        C155   1.355       .  A
Mn154      Cl178   2.555       .  S
C155       C3842   1.475       .  S
C156       C4055   1.467   1_545  S
N157        N158   1.308       .  A
N157        N163   1.318       .  A
N157       Mn165   2.134       .  S
N158        C166   1.333       .  A
N159        N161   1.318       .  A
N159        N160   1.338       .  A
N159       Mn177   2.313       .  S
N160        C167   1.376       .  A
N161        N162   1.311       .  A
N161       Mn165   2.156       .  S
N162        C167   1.338       .  A
N163        N164   1.339       .  A
N163       Mn177   2.311       .  S
N164        C166   1.375       .  A
Mn165      Cl178   2.516       .  S
C166       C3852   1.488       .  S
C167       C3812   1.512       .  S
N168        N169   1.313       .  A
N168        N174   1.319       .  A
N168       Mn176   2.154       .  S
N169        C179   1.339       .  A
N170        N171   1.338       .  A
N170        N172   1.318       .  A
N170       Mn177   2.315       .  S
N171        C180   1.375       .  A
N172        N173   1.311       .  A
N172       Mn176   2.138       .  S
N173        C180   1.335       .  A
N174        N175   1.337       .  A
N174       Mn177   2.312       .  S
N175        C179   1.373       .  A
Mn176      Cl178   2.520       .  S
Mn177      Cl178   2.585       .  S
C179       C3825   1.497       .  S
C180       C3835   1.492       .  S
N181        N182   1.316       .  A
N181        N187   1.312       .  A
N181       Mn210   2.169       .  S
N182        C189   1.347       .  A
N183        N185   1.310       .  A
N183        N184   1.308       .  A
N183       Mn199   2.167       .  S
N184        C190   1.350       .  A
N185        N186   1.324       .  A
N185       Mn210   2.184       .  S
N186        C190   1.355       .  A
N187        N188   1.320       .  A
N187       Mn199   2.191       .  S
N188        C189   1.353       .  A
C189       C3915   1.455       .  S
C190       C3795   1.476       .  S
N191        N197   1.310       .  A
N191        N192   1.321       .  A
N191       Mn221   2.187       .  S
N192        C200   1.353       .  A
N193        N194   1.316       .  A
N193        N195   1.311       .  A
N193       Mn199   2.178       .  S
N194        C201   1.352       .  A
N195        N196   1.317       .  A
N195       Mn221   2.167       .  S
N196        C201   1.347       .  A
N197        N198   1.318       .  A
N197       Mn199   2.189       .  S
N198        C200   1.353       .  A
Mn199      Cl223   2.546       .  S
C200       C3865   1.475       .  S
C201       C3952   1.454       .  S
N202        N203   1.310       .  A
N202        N208   1.318       .  A
N202       Mn210   2.135       .  S
N203        C211   1.334       .  A
N204        N206   1.318       .  A
N204        N205   1.338       .  A
N204       Mn222   2.314       .  S
N205        C212   1.376       .  A
N206        N207   1.310       .  A
N206       Mn210   2.144       .  S
N207        C212   1.338       .  A
N208        N209   1.337       .  A
N208       Mn222   2.309       .  S
N209        C211   1.373       .  A
Mn210      Cl223   2.525       .  S
C211       C3785   1.484       .  S
C212       C3762   1.510       .  S
N213        N214   1.310       .  A
N213        N219   1.317       .  A
N213       Mn221   2.142       .  S
N214        C224   1.338       .  A
N215        N216   1.338       .  A
N215        N217   1.318       .  A
N215       Mn222   2.310       .  S
N216        C225   1.374       .  A
N217        N218   1.309       .  A
N217       Mn221   2.134       .  S
N218        C225   1.334       .  A
N219        N220   1.339       .  A
N219       Mn222   2.319       .  S
N220        C224   1.377       .  A
Mn221      Cl223   2.520       .  S
Mn222      Cl223   2.577       .  S
C224       C3775   1.512       .  S
C225       C3802   1.486       .  S
N226        N227   1.319       .  A
N226        N232   1.308       .  A
N226       Mn255   2.164       .  S
N227        C234   1.351       .  A
N228        N230   1.309       .  A
N228        N229   1.318       .  A
N228       Mn244   2.185       .  S
N229        C235   1.354       .  A
N230        N231   1.320       .  A
N230       Mn255   2.184       .  S
N231        C235   1.352       .  A
N232        N233   1.310       .  A
N232       Mn244   2.160       .  S
N233        C234   1.347       .  A
C234       C4032   1.459       .  S
C235       C3845   1.470       .  S
N236        N242   1.308       .  A
N236        N237   1.323       .  A
N236       Mn266   2.187       .  S
N237        C245   1.357       .  A
N238        N239   1.314       .  A
N238        N240   1.310       .  A
N238       Mn244   2.174       .  S
N239        C246   1.349       .  A
N240        N241   1.319       .  A
N240       Mn266   2.170       .  S
N241        C246   1.351       .  A
N242        N243   1.309       .  A
N242       Mn244   2.156       .  S
N243        C245   1.346       .  A
Mn244      Cl268   2.549       .  S
C245       C3792   1.475       .  S
C246       C3885   1.461       .  S
N247        N248   1.304       .  A
N247        N253   1.318       .  A
N247       Mn255   2.118       .  S
N248        C256   1.329       .  A
N249        N251   1.319       .  A
N249        N250   1.339       .  A
N249       Mn267   2.329       .  S
N250        C257   1.377       .  A
N251        N252   1.310       .  A
N251       Mn255   2.136       .  S
N252        C257   1.337       .  A
N253        N254   1.343       .  A
N253       Mn267   2.327       .  S
N254        C256   1.379       .  A
Mn255      Cl268   2.520       .  S
C256       C3742   1.496       .  S
C257       C3732   1.508       .  S
N258        N259   1.311       .  A
N258        N264   1.319       .  A
N258       Mn266   2.159       .  S
N259        C269   1.338       .  A
N260        N261   1.343       .  A
N260        N262   1.317       .  A
N260       Mn267   2.328       .  S
N261        C270   1.381       .  A
N262        N263   1.305       .  A
N262       Mn266   2.125       .  S
N263        C270   1.329       .  A
N264        N265   1.338       .  A
N264       Mn267   2.312       .  S
N265        C269   1.376       .  A
Mn266      Cl268   2.513       .  S
Mn267      Cl268   2.571       .  S
C269       C3722   1.510       .  S
C270       C3755   1.508       .  S
N271        N272   1.334       .  A
N271        N277   1.319       .  A
N271       Mn300   2.294       .  S
N272        C279   1.371       .  A
N273        N275   1.318       .  A
N273        N274   1.306       .  A
N273       Mn289   2.128       .  S
N274        C280   1.334       .  A
N275        N276   1.339       .  A
N275       Mn300   2.308       .  S
N276        C280   1.376       .  A
N277        N278   1.312       .  A
N277       Mn289   2.153       .  S
N278        C279   1.339       .  A
C279       C3715   1.493       .  S
C280       C3662   1.495       .  S
N281        N287   1.309       .  A
N281        N282   1.312       .  A
N281       Mn311   2.160       .  S
N282        C290   1.350       .  A
N283        N284   1.320       .  A
N283        N285   1.310       .  A
N283       Mn289   2.175       .  S
N284        C291   1.352       .  A
N285        N286   1.312       .  A
N285       Mn311   2.161       .  S
N286        C291   1.346       .  A
N287        N288   1.321       .  A
N287       Mn289   2.191       .  S
N288        C290   1.355       .  A
Mn289      Cl313   2.530       .  S
C290       C3652   1.477       .  S
C291       C3702   1.453       .  S
N292        N293   1.336       .  A
N292        N298   1.319       .  A
N292       Mn300   2.297       .  S
N293        C301   1.371       .  A
N294        N296   1.319       .  A
N294        N295   1.311       .  A
N294       Mn312   2.148       .  S
N295        C302   1.337       .  A
N296        N297   1.338       .  A
N296       Mn300   2.309       .  S
N297        C302   1.372       .  A
N298        N299   1.310       .  A
N298       Mn312   2.148       .  S
N299        C301   1.337       .  A
Mn300      Cl313   2.570       .  S
C301       C3645   1.484       .  S
C302       C3682   1.490       .  S
N303        N304   1.308       .  A
N303        N309   1.310       .  A
N303       Mn311   2.151       .  S
N304        C314   1.345       .  A
N305        N306   1.319       .  A
N305        N307   1.310       .  A
N305       Mn312   2.185       .  S
N306        C315   1.353       .  A
N307        N308   1.316       .  A
N307       Mn311   2.172       .  S
N308        C315   1.349       .  A
N309        N310   1.323       .  A
N309       Mn312   2.188       .  S
N310        C314   1.356       .  A
Mn311      Cl313   2.515       .  S
Mn312      Cl313   2.534       .  S
C314       C3692   1.459       .  S
C315       C3672   1.465       .  S
N316        N317   1.321       .  A
N316        N322   1.309       .  A
N316       Mn345   2.181       .  S
N317        C324   1.354       .  A
N318        N320   1.307       .  A
N318        N319   1.313       .  A
N318       Mn334   2.155       .  S
N319        C325   1.346       .  A
N320        N321   1.321       .  A
N320       Mn345   2.183       .  S
N321        C325   1.354       .  A
N322        N323   1.312       .  A
N322       Mn334   2.165       .  S
N323        C324   1.350       .  A
C324       C3602   1.468       .  S
C325       C3592   1.453       .  S
N326        N332   1.307       .  A
N326        N327   1.323       .  A
N326       Mn356   2.180       .  S
N327        C335   1.356       .  A
N328        N329   1.314       .  A
N328        N330   1.308       .  A
N328       Mn334   2.169       .  S
N329        C336   1.350       .  A
N330        N331   1.318       .  A
N330       Mn356   2.160       .  S
N331        C336   1.349       .  A
N332        N333   1.305       .  A
N332       Mn334   2.147       .  S
N333        C335   1.342       .  A
Mn334      Cl358   2.529       .  S
C335       C3612   1.461       .  S
C336       C3705   1.453       .  S
N337        N338   1.307       .  A
N337        N343   1.321       .  A
N337       Mn345   2.141       .  S
N338        C346   1.333       .  A
N339        N341   1.319       .  A
N339        N340   1.340       .  A
N339       Mn357   2.326       .  S
N340        C347   1.378       .  A
N341        N342   1.308       .  A
N341       Mn345   2.135       .  S
N342        C347   1.332       .  A
N343        N344   1.338       .  A
N343       Mn357   2.310       .  S
N344        C346   1.374       .  A
Mn345      Cl358   2.522       .  S
C346       C3582   1.486       .  S
C347       C3572   1.507       .  S
N348        N349   1.308       .  A
N348        N354   1.319       .  A
N348       Mn356   2.136       .  S
N349        C359   1.332       .  A
N350        N351   1.338       .  A
N350        N352   1.318       .  A
N350       Mn357   2.318       .  S
N351        C360   1.375       .  A
N352        N353   1.309       .  A
N352       Mn356   2.129       .  S
N353        C360   1.333       .  A
N354        N355   1.340       .  A
N354       Mn357   2.328       .  S
N355        C359   1.379       .  A
Mn356      Cl358   2.530       .  S
Mn357      Cl358   2.558       .  S
C359       C3632   1.510       .  S
C360       C3625   1.487       .  S
N361        N362   1.320       .  A
N361        N367   1.307       .  A
N361       Mn390   2.172       .  S
N362        C369   1.355       .  A
N363        N365   1.308       .  A
N363        N364   1.305       .  A
N363       Mn379   2.149       .  S
N364        C370   1.347       .  A
N365        N366   1.324       .  A
N365       Mn390   2.187       .  S
N366        C370   1.357       .  A
N367        N368   1.313       .  A
N367       Mn379   2.170       .  S
N368        C369   1.348       .  A
C369       C3655   1.475       .  S
C370       C3615   1.464       .  S
N371        N377   1.308       .  A
N371        N372   1.320       .  A
N371       Mn401   2.182       .  S
N372        C380   1.354       .  A
N373        N374   1.310       .  A
N373        N375   1.310       .  A
N373       Mn379   2.162       .  S
N374        C381   1.349       .  A
N375        N376   1.322       .  A
N375       Mn401   2.189       .  S
N376        C381   1.356       .  A
N377        N378   1.315       .  A
N377       Mn379   2.163       .  S
N378        C380   1.349       .  A
Mn379      Cl403   2.511       .  S
C380       C3552   1.462       .  S
C381       C3522   1.475       .  S
N382        N383   1.308       .  A
N382        N388   1.317       .  A
N382       Mn390   2.125       .  S
N383        C391   1.332       .  A
N384        N386   1.320       .  A
N384        N385   1.337       .  A
N384       Mn402   2.315       .  S
N385        C392   1.373       .  A
N386        N387   1.311       .  A
N386       Mn390   2.151       .  S
N387        C392   1.338       .  A
N388        N389   1.337       .  A
N388       Mn402   2.305       .  S
N389        C391   1.374       .  A
Mn390      Cl403   2.541       .  S
C391       C3562   1.481       .  S
C392       C3512   1.496       .  S
N393        N394   1.310       .  A
N393        N399   1.318       .  A
N393       Mn401   2.140       .  S
N394        C404   1.338       .  A
N395        N396   1.339       .  A
N395        N397   1.320       .  A
N395       Mn402   2.311       .  S
N396        C405   1.374       .  A
N397        N398   1.308       .  A
N397       Mn401   2.143       .  S
N398        C405   1.334       .  A
N399        N400   1.335       .  A
N399       Mn402   2.301       .  S
N400        C404   1.373       .  A
Mn401      Cl403   2.533       .  S
Mn402      Cl403   2.564       .  S
C404       C3532   1.502       .  S
C405       C3542   1.490       .  S
N406        N407   1.317       .  A
N406        N412   1.308       .  A
N406       Mn435   2.156       .  S
N407        C414   1.349       .  A
N408        N410   1.308       .  A
N408        N409   1.310       .  A
N408       Mn424   2.157       .  S
N409        C415   1.348       .  A
N410        N411   1.320       .  A
N410       Mn435   2.177       .  S
N411        C415   1.352       .  A
N412        N413   1.313       .  A
N412       Mn424   2.170       .  S
N413        C414   1.349       .  A
C414       C3695   1.458   1_455  S
C415       C3482   1.453       .  S
N416        N422   1.307       .  A
N416        N417   1.321       .  A
N416       Mn446   2.182       .  S
N417        C425   1.353       .  A
N418        N419   1.312       .  A
N418        N420   1.309       .  A
N418       Mn424   2.163       .  S
N419        C426   1.347       .  A
N420        N421   1.321       .  A
N420       Mn446   2.181       .  S
N421        C426   1.354       .  A
N422        N423   1.313       .  A
N422       Mn424   2.163       .  S
N423        C425   1.350       .  A
Mn424      Cl448   2.525       .  S
C425       C3502   1.455       .  S
C426       C3605   1.467   1_455  S
N427        N428   1.301       .  A
N427        N433   1.316       .  A
N427       Mn435   2.106       .  S
N428        C436   1.328       .  A
N429        N431   1.319       .  A
N429        N430   1.339       .  A
N429       Mn447   2.324       .  S
N430        C437   1.377       .  A
N431        N432   1.310       .  A
N431       Mn435   2.137       .  S
N432        C437   1.337       .  A
N433        N434   1.345       .  A
N433       Mn447   2.335       .  S
N434        C436   1.384       .  A
Mn435      Cl448   2.510       .  S
C436       C3472   1.511       .  S
C437       C3452   1.505       .  S
N438        N439   1.307       .  A
N438        N444   1.319       .  A
N438       Mn446   2.135       .  S
N439        C449   1.333       .  A
N440        N441   1.344       .  A
N440        N442   1.317       .  A
N440       Mn447   2.324       .  S
N441        C450   1.381       .  A
N442        N443   1.300       .  A
N442       Mn446   2.113       .  S
N443        C450   1.329       .  A
N444        N445   1.339       .  A
N444       Mn447   2.321       .  S
N445        C449   1.377       .  A
Mn446      Cl448   2.506       .  S
Mn447      Cl448   2.586       .  S
C449       C3465   1.506       .  S
C450       C3492   1.506       .  S
N451        N452   1.315       .  A
N451        N457   1.311       .  A
N451       Mn480   2.160       .  S
N452        C459   1.345       .  A
N453        N455   1.310       .  A
N453        N454   1.314       .  A
N453       Mn469   2.175       .  S
N454        C460   1.351       .  A
N455        N456   1.320       .  A
N455       Mn480   2.178       .  S
N456        C460   1.350       .  A
N457        N458   1.319       .  A
N457       Mn469   2.191       .  S
N458        C459   1.353       .  A
C459       C3595   1.452       .  S
C460       C3505   1.456       .  S
N461        N467   1.311       .  A
N461        N462   1.319       .  A
N461       Mn491   2.184       .  S
N462        C470   1.352       .  A
N463        N464   1.319       .  A
N463        N465   1.312       .  A
N463       Mn469   2.188       .  S
N464        C471   1.352       .  A
N465        N466   1.316       .  A
N465       Mn491   2.168       .  S
N466        C471   1.347       .  A
N467        N468   1.317       .  A
N467       Mn469   2.183       .  S
N468        C470   1.351       .  A
Mn469      Cl493   2.565       .  S
C470       C3432   1.458       .  S
C471       C3555   1.458       .  S
N472        N473   1.306       .  A
N472        N478   1.317       .  A
N472       Mn480   2.128       .  S
N473        C481   1.333       .  A
N474        N476   1.318       .  A
N474        N475   1.338       .  A
N474       Mn492   2.313       .  S
N475        C482   1.374       .  A
N476        N477   1.311       .  A
N476       Mn480   2.144       .  S
N477        C482   1.337       .  A
N478        N479   1.342       .  A
N478       Mn492   2.322       .  S
N479        C481   1.378       .  A
Mn480      Cl493   2.510       .  S
C481       C3442   1.500       .  S
C482       C3405   1.496       .  S
N483        N484   1.314       .  A
N483        N489   1.321       .  A
N483       Mn491   2.156       .  S
N484        C494   1.338       .  A
N485        N486   1.339       .  A
N485        N487   1.319       .  A
N485       Mn492   2.313       .  S
N486        C495   1.375       .  A
N487        N488   1.308       .  A
N487       Mn491   2.135       .  S
N488        C495   1.333       .  A
N489        N490   1.338       .  A
N489       Mn492   2.321       .  S
N490        C494   1.374       .  A
Mn491      Cl493   2.515       .  S
Mn492      Cl493   2.575       .  S
C494       C3412   1.496       .  S
C495       C3422   1.488       .  S
N496        N497   1.321       .  A
N496        N502   1.309       .  A
N496       Mn525   2.183       .  S
N497        C504   1.356       .  A
N498        N500   1.309       .  A
N498        N499   1.320       .  A
N498       Mn514   2.186       .  S
N499        C505   1.353       .  A
N500        N501   1.317       .  A
N500       Mn525   2.173       .  S
N501        C505   1.349       .  A
N502        N503   1.311       .  A
N502       Mn514   2.162       .  S
N503        C504   1.347       .  A
C504       C3525   1.474       .  S
C505       C3435   1.460       .  S
N506        N512   1.309       .  A
N506        N507   1.321       .  A
N506       Mn536   2.176       .  S
N507        C515   1.352       .  A
N508        N509   1.319       .  A
N508        N510   1.311       .  A
N508       Mn514   2.189       .  S
N509        C516   1.352       .  A
N510        N511   1.317       .  A
N510       Mn536   2.167       .  S
N511        C516   1.349       .  A
N512        N513   1.309       .  A
N512       Mn514   2.162       .  S
N513        C515   1.350       .  A
Mn514      Cl538   2.537       .  S
C515       C3485   1.454       .  S
C516       C3675   1.461       .  S
N517        N518   1.307       .  A
N517        N523   1.318       .  A
N517       Mn525   2.134       .  S
N518        C526   1.332       .  A
N519        N521   1.318       .  A
N519        N520   1.335       .  A
N519       Mn537   2.301       .  S
N520        C527   1.373       .  A
N521        N522   1.311       .  A
N521       Mn525   2.146       .  S
N522        C527   1.340       .  A
N523        N524   1.341       .  A
N523       Mn537   2.320       .  S
N524        C526   1.379       .  A
Mn525      Cl538   2.511       .  S
C526       C3392   1.504       .  S
C527       C3362   1.503       .  S
N528        N529   1.313       .  A
N528        N534   1.320       .  A
N528       Mn536   2.145       .  S
N529        C539   1.337       .  A
N530        N531   1.340       .  A
N530        N532   1.318       .  A
N530       Mn537   2.325       .  S
N531        C540   1.377       .  A
N532        N533   1.308       .  A
N532       Mn536   2.119       .  S
N533        C540   1.330       .  A
N534        N535   1.337       .  A
N534       Mn537   2.320       .  S
N535        C539   1.373       .  A
Mn536      Cl538   2.528       .  S
Mn537      Cl538   2.578       .  S
C539       C3372   1.493       .  S
C540       C3382   1.486       .  S
N541        N542   1.306       .  A
N541        N547   1.308       .  A
N541       Mn570   2.143       .  S
N542        C549   1.342       .  A
N543        N545   1.307       .  A
N543        N544   1.322       .  A
N543       Mn559   2.190       .  S
N544        C550   1.358       .  A
N545        N546   1.312       .  A
N545       Mn570   2.154       .  S
N546        C550   1.346       .  A
N547        N548   1.322       .  A
N547       Mn559   2.183       .  S
N548        C549   1.356       .  A
C549       C3345   1.462       .  S
C550       C3322   1.472       .  S
N551        N557   1.319       .  A
N551        N552   1.338       .  A
N551       Mn581   2.309       .  S
N552        C560   1.375       .  A
N553        N554   1.312       .  A
N553        N555   1.320       .  A
N553       Mn559   2.149       .  S
N554        C561   1.336       .  A
N555        N556   1.337       .  A
N555       Mn581   2.310       .  S
N556        C561   1.372       .  A
N557        N558   1.307       .  A
N557       Mn559   2.136       .  S
N558        C560   1.335       .  A
Mn559      Cl583   2.528       .  S
C560       C3335   1.500       .  S
C561       C3352   1.488       .  S
N562        N563   1.306       .  A
N562        N568   1.307       .  A
N562       Mn570   2.147       .  S
N563        C571   1.346       .  A
N564        N566   1.307       .  A
N564        N565   1.318       .  A
N564       Mn582   2.170       .  S
N565        C572   1.351       .  A
N566        N567   1.315       .  A
N566       Mn570   2.166       .  S
N567        C572   1.350       .  A
N568        N569   1.323       .  A
N568       Mn582   2.185       .  S
N569        C571   1.357       .  A
Mn570      Cl583   2.511       .  S
C571       C3312   1.465       .  S
C572       C3305   1.467       .  S
N573        N574   1.338       .  A
N573        N579   1.319       .  A
N573       Mn581   2.305       .  S
N574        C584   1.373       .  A
N575        N576   1.306       .  A
N575        N577   1.318       .  A
N575       Mn582   2.123       .  S
N576        C585   1.333       .  A
N577        N578   1.339       .  A
N577       Mn581   2.319       .  S
N578        C585   1.377       .  A
N579        N580   1.308       .  A
N579       Mn582   2.137       .  S
N580        C584   1.334       .  A
Mn581      Cl583   2.576       .  S
Mn582      Cl583   2.523       .  S
C584       C3282   1.488       .  S
C585       C3295   1.501       .  S
N586        N587   1.322       .  A
N586        N592   1.309       .  A
N586       Mn615   2.191       .  S
N587        C594   1.357       .  A
N588        N590   1.310       .  A
N588        N589   1.316       .  A
N588       Mn604   2.177       .  S
N589        C595   1.350       .  A
N590        N591   1.320       .  A
N590       Mn615   2.186       .  S
N591        C595   1.352       .  A
N592        N593   1.311       .  A
N592       Mn604   2.156       .  S
N593        C594   1.345       .  A
C594       C3262   1.475       .  S
C595       C3232   1.457       .  S
N596        N602   1.308       .  A
N596        N597   1.319       .  A
N596       Mn626   2.176       .  S
N597        C605   1.351       .  A
N598        N599   1.317       .  A
N598        N600   1.309       .  A
N598       Mn604   2.187       .  S
N599        C606   1.354       .  A
N600        N601   1.316       .  A
N600       Mn626   2.157       .  S
N601        C606   1.348       .  A
N602        N603   1.311       .  A
N602       Mn604   2.156       .  S
N603        C605   1.349       .  A
Mn604      Cl628   2.538       .  S
C605       C3222   1.447       .  S
C606       C3325   1.470       .  S
N607        N608   1.307       .  A
N607        N613   1.319       .  A
N607       Mn615   2.140       .  S
N608        C616   1.333       .  A
N609        N611   1.319       .  A
N609        N610   1.337       .  A
N609       Mn627   2.302       .  S
N610        C617   1.374       .  A
N611        N612   1.308       .  A
N611       Mn615   2.150       .  S
N612        C617   1.336       .  A
N613        N614   1.338       .  A
N613       Mn627   2.304       .  S
N614        C616   1.375       .  A
Mn615      Cl628   2.509       .  S
C616       C3242   1.495       .  S
C617       C3252   1.501       .  S
N618        N619   1.312       .  A
N618        N624   1.318       .  A
N618       Mn626   2.140       .  S
N619        C629   1.336       .  A
N620        N621   1.344       .  A
N620        N622   1.317       .  A
N620       Mn627   2.330       .  S
N621        C630   1.381       .  A
N622        N623   1.303       .  A
N622       Mn626   2.113       .  S
N623        C630   1.330       .  A
N624        N625   1.337       .  A
N624       Mn627   2.314       .  S
N625        C629   1.373       .  A
Mn626      Cl628   2.514       .  S
Mn627      Cl628   2.588       .  S
C629       C3275   1.490       .  S
C630       C3215   1.501       .  S
N631        N632   1.322       .  A
N631        N637   1.307       .  A
N631       Mn660   2.170       .  S
N632        C639   1.354       .  A
N633        N635   1.307       .  A
N633        N634   1.312       .  A
N633       Mn649   2.164       .  S
N634        C640   1.352       .  A
N635        N636   1.318       .  A
N635       Mn660   2.167       .  S
N636        C640   1.350       .  A
N637        N638   1.307       .  A
N637       Mn649   2.149       .  S
N638        C639   1.347       .  A
C639       C3342   1.465       .  S
C640       C3225   1.447       .  S
N641        N647   1.308       .  A
N641        N642   1.321       .  A
N641       Mn671   2.191       .  S
N642        C650   1.353       .  A
N643        N644   1.313       .  A
N643        N645   1.307       .  A
N643       Mn649   2.171       .  S
N644        C651   1.351       .  A
N645        N646   1.320       .  A
N645       Mn671   2.172       .  S
N646        C651   1.354       .  A
N647        N648   1.313       .  A
N647       Mn649   2.155       .  S
N648        C650   1.347       .  A
Mn649      Cl673   2.540       .  S
C650       C3152   1.455       .  S
C651       C3192   1.474       .  S
N652        N653   1.308       .  A
N652        N658   1.319       .  A
N652       Mn660   2.126       .  S
N653        C661   1.331       .  A
N654        N656   1.318       .  A
N654        N655   1.338       .  A
N654       Mn672   2.320       .  S
N655        C662   1.376       .  A
N656        N657   1.310       .  A
N656       Mn660   2.134       .  S
N657        C662   1.335       .  A
N658        N659   1.340       .  A
N658       Mn672   2.321       .  S
N659        C661   1.377       .  A
Mn660      Cl673   2.519       .  S
C661       C3172   1.491       .  S
C662       C3202   1.505       .  S
N663        N664   1.311       .  A
N663        N669   1.321       .  A
N663       Mn671   2.156       .  S
N664        C674   1.339       .  A
N665        N666   1.341       .  A
N665        N667   1.318       .  A
N665       Mn672   2.318       .  S
N666        C675   1.379       .  A
N667        N668   1.303       .  A
N667       Mn671   2.125       .  S
N668        C675   1.328       .  A
N669        N670   1.336       .  A
N669       Mn672   2.304       .  S
N670        C674   1.373       .  A
Mn671      Cl673   2.510       .  S
Mn672      Cl673   2.567       .  S
C674       C3182   1.501       .  S
C675       C3162   1.501       .  S
N676        N677   1.323       .  A
N676        N682   1.308       .  A
N676       Mn705   2.185       .  S
N677        C684   1.356       .  A
N678        N680   1.308       .  A
N678        N679   1.310       .  A
N678       Mn694   2.154       .  S
N679        C685   1.345       .  A
N680        N681   1.325       .  A
N680       Mn705   2.202       .  S
N681        C685   1.360       .  A
N682        N683   1.307       .  A
N682       Mn694   2.144       .  S
N683        C684   1.343       .  A
C684       C3315   1.463   1_455  S
C685       C3122   1.478       .  S
N686        N692   1.308       .  A
N686        N687   1.321       .  A
N686       Mn716   2.179       .  S
N687        C695   1.353       .  A
N688        N689   1.312       .  A
N688        N690   1.308       .  A
N688       Mn694   2.166       .  S
N689        C696   1.350       .  A
N690        N691   1.321       .  A
N690       Mn716   2.173       .  S
N691        C696   1.354       .  A
N692        N693   1.309       .  A
N692       Mn694   2.152       .  S
N693        C695   1.346       .  A
Mn694      Cl718   2.512       .  S
C695       C3142   1.454       .  S
C696       C3265   1.475   1_455  S
N697        N698   1.309       .  A
N697        N703   1.320       .  A
N697       Mn705   2.132       .  S
N698        C706   1.333       .  A
N699        N701   1.319       .  A
N699        N700   1.340       .  A
N699       Mn717   2.324       .  S
N700        C707   1.378       .  A
N701        N702   1.309       .  A
N701       Mn705   2.149       .  S
N702        C707   1.335       .  A
N703        N704   1.338       .  A
N703       Mn717   2.315       .  S
N704        C706   1.374       .  A
Mn705      Cl718   2.537       .  S
C706       C3112   1.484       .  S
C707       C3092   1.511       .  S
N708        N709   1.310       .  A
N708        N714   1.319       .  A
N708       Mn716   2.134       .  S
N709        C719   1.335       .  A
N710        N711   1.341       .  A
N710        N712   1.318       .  A
N710       Mn717   2.319       .  S
N711        C720   1.378       .  A
N712        N713   1.305       .  A
N712       Mn716   2.125       .  S
N713        C720   1.332       .  A
N714        N715   1.338       .  A
N714       Mn717   2.321       .  S
N715        C719   1.376       .  A
Mn716      Cl718   2.532       .  S
Mn717      Cl718   2.569       .  S
C719       C3102   1.500       .  S
C720       C3135   1.497       .  S
N721        N722   1.323       .  A
N721        N727   1.310       .  A
N721       Mn750   2.191       .  S
N722        C729   1.357       .  A
N723        N725   1.311       .  A
N723        N724   1.319       .  A
N723       Mn739   2.184       .  S
N724        C730   1.353       .  A
N725        N726   1.317       .  A
N725       Mn750   2.176       .  S
N726        C730   1.349       .  A
N727        N728   1.310       .  A
N727       Mn739   2.161       .  S
N728        C729   1.344       .  A
C729       C3195   1.473   1_545  S
C730       C3082   1.463       .  S
N731        N737   1.309       .  A
N731        N732   1.322       .  A
N731       Mn761   2.193       .  S
N732        C740   1.355       .  A
N733        N734   1.318       .  A
N733        N735   1.309       .  A
N733       Mn739   2.181       .  S
N734        C741   1.352       .  A
N735        N736   1.316       .  A
N735       Mn761   2.161       .  S
N736        C741   1.349       .  A
N737        N738   1.313       .  A
N737       Mn739   2.170       .  S
N738        C740   1.352       .  A
Mn739      Cl763   2.550       .  S
C740       C3125   1.479       .  S
C741       C3302   1.464       .  S
N742        N743   1.309       .  A
N742        N748   1.320       .  A
N742       Mn750   2.145       .  S
N743        C751   1.334       .  A
N744        N746   1.321       .  A
N744        N745   1.337       .  A
N744       Mn762   2.320       .  S
N745        C752   1.373       .  A
N746        N747   1.313       .  A
N746       Mn750   2.148       .  S
N747        C752   1.338       .  A
N748        N749   1.338       .  A
N748       Mn762   2.308       .  S
N749        C751   1.374       .  A
Mn750      Cl763   2.529       .  S
C751       C3075   1.488       .  S
C752       C3055   1.493       .  S
N753        N754   1.312       .  A
N753        N759   1.320       .  A
N753       Mn761   2.159       .  S
N754        C764   1.339       .  A
N755        N756   1.339       .  A
N755        N757   1.318       .  A
N755       Mn762   2.321       .  S
N756        C765   1.376       .  A
N757        N758   1.308       .  A
N757       Mn761   2.124       .  S
N758        C765   1.331       .  A
N759        N760   1.337       .  A
N759       Mn762   2.309       .  S
N760        C764   1.373       .  A
Mn761      Cl763   2.529       .  S
Mn762      Cl763   2.562       .  S
C764       C3042   1.501       .  S
C765       C3062   1.487       .  S
N766        N767   1.317       .  A
N766        N772   1.311       .  A
N766       Mn795   2.170       .  S
N767        C774   1.347       .  A
N768        N770   1.309       .  A
N768        N769   1.311       .  A
N768       Mn784   2.170       .  S
N769        C775   1.351       .  A
N770        N771   1.320       .  A
N770       Mn795   2.176       .  S
N771        C775   1.352       .  A
N772        N773   1.319       .  A
N772       Mn784   2.191       .  S
N773        C774   1.352       .  A
C774       C3235   1.456       .  S
C775       C3145   1.457       .  S
N776        N782   1.310       .  A
N776        N777   1.319       .  A
N776       Mn806   2.184       .  S
N777        C785   1.352       .  A
N778        N779   1.317       .  A
N778        N780   1.311       .  A
N778       Mn784   2.182       .  S
N779        C786   1.352       .  A
N780        N781   1.317       .  A
N780       Mn806   2.169       .  S
N781        C786   1.348       .  A
N782        N783   1.317       .  A
N782       Mn784   2.178       .  S
N783        C785   1.351       .  A
Mn784      Cl808   2.549       .  S
C785       C3085   1.462       .  S
C786       C3155   1.455       .  S
N787        N788   1.309       .  A
N787        N793   1.318       .  A
N787       Mn795   2.133       .  S
N788        C796   1.333       .  A
N789        N791   1.317       .  A
N789        N790   1.340       .  A
N789       Mn807   2.323       .  S
N790        C797   1.379       .  A
N791        N792   1.309       .  A
N791       Mn795   2.138       .  S
N792        C797   1.334       .  A
N793        N794   1.338       .  A
N793       Mn807   2.311       .  S
N794        C796   1.374       .  A
Mn795      Cl808   2.515       .  S
C796       C3022   1.486       .  S
C797       C3002   1.512       .  S
N798        N799   1.311       .  A
N798        N804   1.319       .  A
N798       Mn806   2.137       .  S
N799        C809   1.336       .  A
N800        N801   1.338       .  A
N800        N802   1.319       .  A
N800       Mn807   2.315       .  S
N801        C810   1.374       .  A
N802        N803   1.308       .  A
N802       Mn806   2.128       .  S
N803        C810   1.332       .  A
N804        N805   1.337       .  A
N804       Mn807   2.319       .  S
N805        C809   1.375       .  A
Mn806      Cl808   2.516       .  S
Mn807      Cl808   2.580       .  S
C809       C3012   1.498       .  S
C810       C3032   1.483       .  S
N811        N812   1.318       .  A
N811        N817   1.311       .  A
N811       Mn840   2.186       .  S
N812        C819   1.352       .  A
N813        N815   1.309       .  A
N813        N814   1.325       .  A
N813       Mn829   2.189       .  S
N814        C820   1.358       .  A
N815        N816   1.306       .  A
N815       Mn840   2.158       .  S
N816        C820   1.343       .  A
N817        N818   1.318       .  A
N817       Mn829   2.175       .  S
N818        C819   1.350       .  A
C819       C2992   1.465       .  S
C820       C2972   1.475       .  S
N821        N827   1.319       .  A
N821        N822   1.340       .  A
N821       Mn851   2.317       .  S
N822        C830   1.375       .  A
N823        N824   1.309       .  A
N823        N825   1.320       .  A
N823       Mn829   2.139       .  S
N824        C831   1.334       .  A
N825        N826   1.340       .  A
N825       Mn851   2.319       .  S
N826        C831   1.376       .  A
N827        N828   1.308       .  A
N827       Mn829   2.135       .  S
N828        C830   1.334       .  A
Mn829      Cl853   2.525       .  S
C830       C2952   1.491       .  S
C831       C3115   1.493       .  S
N832        N833   1.317       .  A
N832        N838   1.309       .  A
N832       Mn840   2.181       .  S
N833        C841   1.352       .  A
N834        N836   1.309       .  A
N834        N835   1.322       .  A
N834       Mn852   2.187       .  S
N835        C842   1.354       .  A
N836        N837   1.312       .  A
N836       Mn840   2.167       .  S
N837        C842   1.352       .  A
N838        N839   1.319       .  A
N838       Mn852   2.177       .  S
N839        C841   1.352       .  A
Mn840      Cl853   2.537       .  S
C841       C2965   1.472       .  S
C842       C2985   1.479       .  S
N843        N844   1.340       .  A
N843        N849   1.319       .  A
N843       Mn851   2.323       .  S
N844        C854   1.376       .  A
N845        N846   1.307       .  A
N845        N847   1.317       .  A
N845       Mn852   2.143       .  S
N846        C855   1.333       .  A
N847        N848   1.341       .  A
N847       Mn851   2.317       .  S
N848        C855   1.379       .  A
N849        N850   1.308       .  A
N849       Mn852   2.132       .  S
N850        C854   1.333       .  A
Mn851      Cl853   2.589       .  S
Mn852      Cl853   2.517       .  S
C854       C3065   1.492       .  S
C855       C2942   1.512       .  S
N856        N857   1.319       .  A
N856        N862   1.310       .  A
N856       Mn885   2.192       .  S
N857        C864   1.354       .  A
N858        N860   1.308       .  A
N858        N859   1.326       .  A
N858       Mn874   2.193       .  S
N859        C865   1.358       .  A
N860        N861   1.307       .  A
N860       Mn885   2.154       .  S
N861        C865   1.348       .  A
N862        N863   1.316       .  A
N862       Mn874   2.163       .  S
N863        C864   1.348       .  A
C864       C2932   1.465       .  S
C865       C2925   1.479       .  S
N866        N872   1.319       .  A
N866        N867   1.339       .  A
N866       Mn896   2.322       .  S
N867        C875   1.375       .  A
N868        N869   1.313       .  A
N868        N870   1.319       .  A
N868       Mn874   2.156       .  S
N869        C876   1.339       .  A
N870        N871   1.334       .  A
N870       Mn896   2.293       .  S
N871        C876   1.371       .  A
N872        N873   1.308       .  A
N872       Mn874   2.127       .  S
N873        C875   1.332       .  A
Mn874      Cl898   2.537       .  S
C875       C2892   1.487       .  S
C876       C3185   1.491       .  S
N877        N878   1.317       .  A
N877        N883   1.310       .  A
N877       Mn885   2.183       .  S
N878        C886   1.351       .  A
N879        N881   1.309       .  A
N879        N880   1.322       .  A
N879       Mn897   2.189       .  S
N880        C887   1.357       .  A
N881        N882   1.311       .  A
N881       Mn885   2.160       .  S
N882        C887   1.346       .  A
N883        N884   1.319       .  A
N883       Mn897   2.177       .  S
N884        C886   1.351       .  A
Mn885      Cl898   2.538       .  S
C886       C2902   1.455       .  S
C887       C2915   1.478       .  S
N888        N889   1.340       .  A
N888        N894   1.319       .  A
N888       Mn896   2.323       .  S
N889        C899   1.376       .  A
N890        N891   1.312       .  A
N890        N892   1.319       .  A
N890       Mn897   2.151       .  S
N891        C900   1.336       .  A
N892        N893   1.336       .  A
N892       Mn896   2.298       .  S
N893        C900   1.371       .  A
N894        N895   1.310       .  A
N894       Mn897   2.143       .  S
N895        C899   1.336       .  A
Mn896      Cl898   2.556       .  S
Mn897      Cl898   2.534       .  S
C899       C3052   1.500       .  S
C900       C2885   1.484       .  S
N901        N902   1.336       .  A
N901        N907   1.319       .  A
N901       Mn930   2.299       .  S
N902        C909   1.373       .  A
N903        N905   1.318       .  A
N903        N904   1.305       .  A
N903       Mn919   2.123       .  S
N904        C910   1.332       .  A
N905        N906   1.341       .  A
N905       Mn930   2.323       .  S
N906        C910   1.379       .  A
N907        N908   1.310       .  A
N907       Mn919   2.151       .  S
N908        C909   1.339       .  A
C909       C3945   1.503       .  S
C910       C3292   1.505       .  S
N911        N917   1.307       .  A
N911        N912   1.309       .  A
N911       Mn941   2.160       .  S
N912        C920   1.350       .  A
N913        N914   1.317       .  A
N913        N915   1.308       .  A
N913       Mn919   2.163       .  S
N914        C921   1.349       .  A
N915        N916   1.316       .  A
N915       Mn941   2.176       .  S
N916        C921   1.353       .  A
N917        N918   1.324       .  A
N917       Mn919   2.187       .  S
N918        C920   1.356       .  A
Mn919      Cl943   2.515       .  S
C920       C2872   1.478       .  S
C921       C2855   1.466       .  S
N922        N923   1.337       .  A
N922        N928   1.320       .  A
N922       Mn930   2.312       .  S
N923        C931   1.375       .  A
N924        N926   1.320       .  A
N924        N925   1.310       .  A
N924       Mn942   2.143       .  S
N925        C932   1.337       .  A
N926        N927   1.339       .  A
N926       Mn930   2.324       .  S
N927        C932   1.376       .  A
N928        N929   1.311       .  A
N928       Mn942   2.153       .  S
N929        C931   1.337       .  A
Mn930      Cl943   2.573       .  S
C931       C3095   1.500       .  S
C932       C3772   1.505       .  S
N933        N934   1.312       .  A
N933        N939   1.309       .  A
N933       Mn941   2.164       .  S
N934        C944   1.351       .  A
N935        N936   1.319       .  A
N935        N937   1.309       .  A
N935       Mn942   2.178       .  S
N936        C945   1.353       .  A
N937        N938   1.316       .  A
N937       Mn941   2.171       .  S
N938        C945   1.350       .  A
N939        N940   1.322       .  A
N939       Mn942   2.189       .  S
N940        C944   1.355       .  A
Mn941      Cl943   2.553       .  S
Mn942      Cl943   2.520       .  S
C944       C2862   1.478       .  S
C945       C2842   1.461       .  S
N946        N947   1.335       .  A
N946        N952   1.320       .  A
N946       Mn975   2.300       .  S
N947        C954   1.371       .  A
N948        N950   1.321       .  A
N948        N949   1.308       .  A
N948       Mn964   2.144       .  S
N949        C955   1.334       .  A
N950        N951   1.338       .  A
N950       Mn975   2.313       .  S
N951        C955   1.373       .  A
N952        N953   1.310       .  A
N952       Mn964   2.144       .  S
N953        C954   1.336       .  A
C954       C3255   1.488       .  S
C955       C2792   1.488       .  S
N956        N962   1.308       .  A
N956        N957   1.315       .  A
N956       Mn986   2.170       .  S
N957        C965   1.351       .  A
N958        N959   1.324       .  A
N958        N960   1.309       .  A
N958       Mn964   2.186       .  S
N959        C966   1.357       .  A
N960        N961   1.307       .  A
N960       Mn986   2.159       .  S
N961        C966   1.344       .  A
N962        N963   1.321       .  A
N962       Mn964   2.189       .  S
N963        C965   1.355       .  A
Mn964      Cl988   2.530       .  S
C965       C2822   1.478       .  S
C966       C2835   1.473       .  S
N967        N968   1.338       .  A
N967        N973   1.317       .  A
N967       Mn975   2.307       .  S
N968        C976   1.375       .  A
N969        N971   1.317       .  A
N969        N970   1.306       .  A
N969       Mn987   2.134       .  S
N970        C977   1.331       .  A
N971        N972   1.341       .  A
N971       Mn975   2.323       .  S
N972        C977   1.380       .  A
N973        N974   1.308       .  A
N973       Mn987   2.123       .  S
N974        C976   1.334       .  A
Mn975      Cl988   2.562       .  S
C976       C2805   1.494       .  S
C977       C3105   1.510       .  S
N978        N979   1.319       .  A
N978        N984   1.308       .  A
N978       Mn986   2.176       .  S
N979        C989   1.352       .  A
N980        N981   1.321       .  A
N980        N982   1.307       .  A
N980       Mn987   2.169       .  S
N981        C990   1.353       .  A
N982        N983   1.308       .  A
N982       Mn986   2.163       .  S
N983        C990   1.351       .  A
N984        N985   1.315       .  A
N984       Mn987   2.163       .  S
N985        C989   1.348       .  A
Mn986      Cl988   2.540       .  S
Mn987      Cl988   2.523       .  S
C989       C2845   1.461       .  S
C990       C2812   1.473       .  S
N991        N992   1.312       .  A
N991        N997   1.309       .  A
N991      Mn1020   2.164       .  S
N992        C999   1.348       .  A
N993        N995   1.308       .  A
N993        N994   1.324       .  A
N993      Mn1009   2.185       .  S
N994       C1000   1.357       .  A
N995        N996   1.307       .  A
N995      Mn1020   2.150       .  S
N996       C1000   1.343       .  A
N997        N998   1.321       .  A
N997      Mn1009   2.174       .  S
N998        C999   1.352       .  A
C999       C2775   1.456       .  S
C1000      C2782   1.465       .  S
N1001      N1007   1.319       .  A
N1001      N1002   1.336       .  A
N1001     Mn1031   2.307       .  S
N1002      C1010   1.372       .  A
N1003      N1004   1.310       .  A
N1003      N1005   1.319       .  A
N1003     Mn1009   2.132       .  S
N1004      C1011   1.334       .  A
N1005      N1006   1.336       .  A
N1005     Mn1031   2.309       .  S
N1006      C1011   1.372       .  A
N1007      N1008   1.309       .  A
N1007     Mn1009   2.130       .  S
N1008      C1010   1.334       .  A
Mn1009    Cl1033   2.551       .  S
C1010      C3285   1.481       .  S
C1011      C3585   1.482       .  S
N1012      N1013   1.309       .  A
N1012      N1018   1.308       .  A
N1012     Mn1020   2.155       .  S
N1013      C1021   1.347       .  A
N1014      N1016   1.309       .  A
N1014      N1015   1.323       .  A
N1014     Mn1032   2.192       .  S
N1015      C1022   1.357       .  A
N1016      N1017   1.308       .  A
N1016     Mn1020   2.151       .  S
N1017      C1022   1.346       .  A
N1018      N1019   1.325       .  A
N1018     Mn1032   2.196       .  S
N1019      C1021   1.359       .  A
Mn1020    Cl1033   2.492       .  S
C1021      C2912   1.480       .  S
C1022      C2765   1.466       .  S
N1023      N1024   1.337       .  A
N1023      N1029   1.320       .  A
N1023     Mn1031   2.311       .  S
N1024      C1034   1.372       .  A
N1025      N1026   1.312       .  A
N1025      N1027   1.320       .  A
N1025     Mn1032   2.150       .  S
N1026      C1035   1.338       .  A
N1027      N1028   1.336       .  A
N1027     Mn1031   2.307       .  S
N1028      C1035   1.372       .  A
N1029      N1030   1.312       .  A
N1029     Mn1032   2.150       .  S
N1030      C1034   1.337       .  A
Mn1031    Cl1033   2.547       .  S
Mn1032    Cl1033   2.557       .  S
C1034      C3402   1.489       .  S
C1035      C3045   1.492       .  S
N1036      N1037   1.334       .  A
N1036      N1042   1.321       .  A
N1036     Mn1065   2.295       .  S
N1037      C1044   1.369       .  A
N1038      N1040   1.319       .  A
N1038      N1039   1.304       .  A
N1038     Mn1054   2.126       .  S
N1039      C1045   1.329       .  A
N1040      N1041   1.341       .  A
N1040     Mn1065   2.320       .  S
N1041      C1045   1.378       .  A
N1042      N1043   1.312       .  A
N1042     Mn1054   2.159       .  S
N1043      C1044   1.337       .  A
C1044      C3642   1.482       .  S
C1045      C3245   1.500       .  S
N1046      N1052   1.308       .  A
N1046      N1047   1.310       .  A
N1046     Mn1076   2.160       .  S
N1047      C1055   1.349       .  A
N1048      N1049   1.323       .  A
N1048      N1050   1.308       .  A
N1048     Mn1054   2.181       .  S
N1049      C1056   1.355       .  A
N1050      N1051   1.309       .  A
N1050     Mn1076   2.158       .  S
N1051      C1056   1.345       .  A
N1052      N1053   1.325       .  A
N1052     Mn1054   2.198       .  S
N1053      C1055   1.358       .  A
Mn1054    Cl1078   2.527       .  S
C1055      C2752   1.482       .  S
C1056      C2732   1.464       .  S
N1057      N1058   1.342       .  A
N1057      N1063   1.318       .  A
N1057     Mn1065   2.329       .  S
N1058      C1066   1.380       .  A
N1059      N1061   1.318       .  A
N1059      N1060   1.310       .  A
N1059     Mn1077   2.134       .  S
N1060      C1067   1.335       .  A
N1061      N1062   1.340       .  A
N1061     Mn1065   2.321       .  S
N1062      C1067   1.376       .  A
N1063      N1064   1.307       .  A
N1063     Mn1077   2.130       .  S
N1064      C1066   1.332       .  A
Mn1065    Cl1078   2.578       .  S
C1066      C3005   1.508       .  S
C1067      C3375   1.497       .  S
N1068      N1069   1.308       .  A
N1068      N1074   1.307       .  A
N1068     Mn1076   2.154       .  S
N1069      C1079   1.345       .  A
N1070      N1071   1.319       .  A
N1070      N1072   1.308       .  A
N1070     Mn1077   2.170       .  S
N1071      C1080   1.350       .  A
N1072      N1073   1.313       .  A
N1072     Mn1076   2.166       .  S
N1073      C1080   1.349       .  A
N1074      N1075   1.322       .  A
N1074     Mn1077   2.174       .  S
N1075      C1079   1.354       .  A
Mn1076    Cl1078   2.511       .  S
Mn1077    Cl1078   2.525       .  S
C1079      C2742   1.461       .  S
C1080      C2722   1.450       .  S
N1081      N1082   1.316       .  A
N1081      N1087   1.308       .  A
N1081     Mn1110   2.169       .  S
N1082      C1089   1.350       .  A
N1083      N1085   1.308       .  A
N1083      N1084   1.322       .  A
N1083     Mn1099   2.180       .  S
N1084      C1090   1.354       .  A
N1085      N1086   1.310       .  A
N1085     Mn1110   2.156       .  S
N1086      C1090   1.346       .  A
N1087      N1088   1.318       .  A
N1087     Mn1099   2.171       .  S
N1088      C1089   1.352       .  A
C1089      C2695   1.460       .  S
C1090      C2712   1.457       .  S
N1091      N1097   1.317       .  A
N1091      N1092   1.342       .  A
N1091     Mn1121   2.330       .  S
N1092      C1100   1.380       .  A
N1093      N1094   1.309       .  A
N1093      N1095   1.319       .  A
N1093     Mn1099   2.142       .  S
N1094      C1101   1.336       .  A
N1095      N1096   1.337       .  A
N1095     Mn1121   2.302       .  S
N1096      C1101   1.372       .  A
N1097      N1098   1.305       .  A
N1097     Mn1099   2.121       .  S
N1098      C1100   1.330       .  A
Mn1099    Cl1123   2.524       .  S
C1100      C3575   1.507       .  S
C1101      C3935   1.488       .  S
N1102      N1103   1.307       .  A
N1102      N1108   1.307       .  A
N1102     Mn1110   2.156       .  S
N1103      C1111   1.348       .  A
N1104      N1106   1.309       .  A
N1104      N1105   1.321       .  A
N1104     Mn1122   2.182       .  S
N1105      C1112   1.354       .  A
N1106      N1107   1.310       .  A
N1106     Mn1110   2.155       .  S
N1107      C1112   1.347       .  A
N1108      N1109   1.324       .  A
N1108     Mn1122   2.182       .  S
N1109      C1111   1.357       .  A
Mn1110    Cl1123   2.512       .  S
C1111      C2705   1.473       .  S
C1112      C2682   1.461       .  S
N1113      N1114   1.338       .  A
N1113      N1119   1.319       .  A
N1113     Mn1121   2.316       .  S
N1114      C1124   1.376       .  A
N1115      N1116   1.308       .  A
N1115      N1117   1.319       .  A
N1115     Mn1122   2.139       .  S
N1116      C1125   1.334       .  A
N1117      N1118   1.338       .  A
N1117     Mn1121   2.309       .  S
N1118      C1125   1.375       .  A
N1119      N1120   1.310       .  A
N1119     Mn1122   2.142       .  S
N1120      C1124   1.336       .  A
Mn1121    Cl1123   2.573       .  S
Mn1122    Cl1123   2.531       .  S
C1124      C3815   1.503       .  S
C1125      C3462   1.497       .  S
N1126      N1127   1.335       .  A
N1126      N1132   1.320       .  A
N1126     Mn1155   2.301       .  S
N1127      C1134   1.371       .  A
N1128      N1130   1.319       .  A
N1128      N1129   1.309       .  A
N1128     Mn1144   2.130       .  S
N1129      C1135   1.333       .  A
N1130      N1131   1.337       .  A
N1130     Mn1155   2.311       .  S
N1131      C1135   1.373       .  A
N1132      N1133   1.312       .  A
N1132     Mn1144   2.151       .  S
N1133      C1134   1.337       .  A
C1134      C3545   1.484       .  S
C1135      C2662   1.482       .  S
N1136      N1142   1.310       .  A
N1136      N1137   1.315       .  A
N1136     Mn1166   2.173       .  S
N1137      C1145   1.350       .  A
N1138      N1139   1.319       .  A
N1138      N1140   1.310       .  A
N1138     Mn1144   2.178       .  S
N1139      C1146   1.351       .  A
N1140      N1141   1.317       .  A
N1140     Mn1166   2.183       .  S
N1141      C1146   1.353       .  A
N1142      N1143   1.322       .  A
N1142     Mn1144   2.198       .  S
N1143      C1145   1.357       .  A
Mn1144    Cl1168   2.531       .  S
C1145      C2655   1.479       .  S
C1146      C2675   1.470       .  S
N1147      N1148   1.336       .  A
N1147      N1153   1.319       .  A
N1147     Mn1155   2.306       .  S
N1148      C1156   1.373       .  A
N1149      N1151   1.319       .  A
N1149      N1150   1.313       .  A
N1149     Mn1167   2.150       .  S
N1150      C1157   1.338       .  A
N1151      N1152   1.339       .  A
N1151     Mn1155   2.320       .  S
N1152      C1157   1.374       .  A
N1153      N1154   1.313       .  A
N1153     Mn1167   2.151       .  S
N1154      C1156   1.337       .  A
Mn1155    Cl1168   2.572       .  S
C1156      C2642   1.492       .  S
C1157      C3415   1.498       .  S
N1158      N1159   1.311       .  A
N1158      N1164   1.310       .  A
N1158     Mn1166   2.168       .  S
N1159      C1169   1.347       .  A
N1160      N1161   1.318       .  A
N1160      N1162   1.312       .  A
N1160     Mn1167   2.181       .  S
N1161      C1170   1.350       .  A
N1162      N1163   1.317       .  A
N1162     Mn1166   2.184       .  S
N1163      C1170   1.350       .  A
N1164      N1165   1.321       .  A
N1164     Mn1167   2.178       .  S
N1165      C1169   1.353       .  A
Mn1166    Cl1168   2.539       .  S
Mn1167    Cl1168   2.532       .  S
C1169      C2762   1.465       .  S
C1170      C2905   1.454       .  S
N1171      N1172   1.313       .  A
N1171      N1177   1.308       .  A
N1171     Mn1200   2.168       .  S
N1172      C1179   1.349       .  A
N1173      N1175   1.308       .  A
N1173      N1174   1.320       .  A
N1173     Mn1189   2.190       .  S
N1174      C1180   1.355       .  A
N1175      N1176   1.315       .  A
N1175     Mn1200   2.161       .  S
N1176      C1180   1.350       .  A
N1177      N1178   1.319       .  A
N1177     Mn1189   2.163       .  S
N1178      C1179   1.350       .  A
C1179      C2635   1.455       .  S
C1180      C2962   1.471       .  S
N1181      N1187   1.315       .  A
N1181      N1182   1.343       .  A
N1181     Mn1211   2.327       .  S
N1182      C1190   1.382       .  A
N1183      N1184   1.313       .  A
N1183      N1185   1.320       .  A
N1183     Mn1189   2.148       .  S
N1184      C1191   1.336       .  A
N1185      N1186   1.337       .  A
N1185     Mn1211   2.312       .  S
N1186      C1191   1.373       .  A
N1187      N1188   1.301       .  A
N1187     Mn1189   2.108       .  S
N1188      C1190   1.325       .  A
Mn1189    Cl1213   2.518       .  S
C1190      C2625   1.506       .  S
C1191      C3685   1.489       .  S
N1192      N1193   1.311       .  A
N1192      N1198   1.310       .  A
N1192     Mn1200   2.164       .  S
N1193      C1201   1.347       .  A
N1194      N1196   1.308       .  A
N1194      N1195   1.326       .  A
N1194     Mn1212   2.191       .  S
N1195      C1202   1.359       .  A
N1196      N1197   1.304       .  A
N1196     Mn1200   2.149       .  S
N1197      C1202   1.340       .  A
N1198      N1199   1.322       .  A
N1198     Mn1212   2.182       .  S
N1199      C1201   1.353       .  A
Mn1200    Cl1213   2.516       .  S
C1201      C2615   1.460       .  S
C1202      C2702   1.472       .  S
N1203      N1204   1.338       .  A
N1203      N1209   1.320       .  A
N1203     Mn1211   2.318       .  S
N1204      C1214   1.374       .  A
N1205      N1206   1.310       .  A
N1205      N1207   1.321       .  A
N1205     Mn1212   2.143       .  S
N1206      C1215   1.334       .  A
N1207      N1208   1.340       .  A
N1207     Mn1211   2.327       .  S
N1208      C1215   1.376       .  A
N1209      N1210   1.311       .  A
N1209     Mn1212   2.143       .  S
N1210      C1214   1.336       .  A
Mn1211    Cl1213   2.573       .  S
Mn1212    Cl1213   2.540       .  S
C1214      C3455   1.496       .  S
C1215      C2602   1.495       .  S
N1216      N1217   1.335       .  A
N1216      N1222   1.318       .  A
N1216     Mn1245   2.300       .  S
N1217      C1224   1.374       .  A
N1218      N1220   1.318       .  A
N1218      N1219   1.305       .  A
N1218     Mn1234   2.126       .  S
N1219      C1225   1.330       .  A
N1220      N1221   1.341       .  A
N1220     Mn1245   2.325       .  S
N1221      C1225   1.379       .  A
N1222      N1223   1.310       .  A
N1222     Mn1234   2.132       .  S
N1223      C1224   1.335       .  A
C1224      C3495   1.490       .  S
C1225      C2562   1.504       .  S
N1226      N1232   1.309       .  A
N1226      N1227   1.314       .  A
N1226     Mn1256   2.168       .  S
N1227      C1235   1.350       .  A
N1228      N1229   1.319       .  A
N1228      N1230   1.310       .  A
N1228     Mn1234   2.170       .  S
N1229      C1236   1.350       .  A
N1230      N1231   1.312       .  A
N1230     Mn1256   2.169       .  S
N1231      C1236   1.350       .  A
N1232      N1233   1.318       .  A
N1232     Mn1234   2.168       .  S
N1233      C1235   1.348       .  A
Mn1234    Cl1258   2.501       .  S
C1235      C2552   1.451       .  S
C1236      C2582   1.452       .  S
N1237      N1238   1.338       .  A
N1237      N1243   1.318       .  A
N1237     Mn1245   2.308       .  S
N1238      C1246   1.376       .  A
N1239      N1241   1.320       .  A
N1239      N1240   1.311       .  A
N1239     Mn1257   2.145       .  S
N1240      C1247   1.335       .  A
N1241      N1242   1.337       .  A
N1241     Mn1245   2.313       .  S
N1242      C1247   1.374       .  A
N1243      N1244   1.305       .  A
N1243     Mn1257   2.125       .  S
N1244      C1246   1.330       .  A
Mn1245    Cl1258   2.593       .  S
C1246      C2572   1.495       .  S
C1247      C3445   1.490       .  S
N1248      N1249   1.312       .  A
N1248      N1254   1.309       .  A
N1248     Mn1256   2.168       .  S
N1249      C1259   1.351       .  A
N1250      N1251   1.320       .  A
N1250      N1252   1.309       .  A
N1250     Mn1257   2.186       .  S
N1251      C1260   1.354       .  A
N1252      N1253   1.316       .  A
N1252     Mn1256   2.175       .  S
N1253      C1260   1.351       .  A
N1254      N1255   1.321       .  A
N1254     Mn1257   2.176       .  S
N1255      C1259   1.352       .  A
Mn1256    Cl1258   2.545       .  S
Mn1257    Cl1258   2.506       .  S
C1259      C2592   1.464       .  S
C1260      C2825   1.475       .  S
N1261      N1262   1.308       .  A
N1261      N1267   1.309       .  A
N1261     Mn1290   2.155       .  S
N1262      C1269   1.348       .  A
N1263      N1265   1.310       .  A
N1263      N1264   1.318       .  A
N1263     Mn1279   2.176       .  S
N1264      C1270   1.352       .  A
N1265      N1266   1.316       .  A
N1265     Mn1290   2.176       .  S
N1266      C1270   1.351       .  A
N1267      N1268   1.324       .  A
N1267     Mn1279   2.189       .  S
N1268      C1269   1.356       .  A
C1269      C2545   1.476       .  S
C1270      C2512   1.463       .  S
N1271      N1277   1.320       .  A
N1271      N1272   1.337       .  A
N1271     Mn1301   2.309       .  S
N1272      C1280   1.373       .  A
N1273      N1274   1.308       .  A
N1273      N1275   1.319       .  A
N1273     Mn1279   2.133       .  S
N1274      C1281   1.334       .  A
N1275      N1276   1.338       .  A
N1275     Mn1301   2.311       .  S
N1276      C1281   1.373       .  A
N1277      N1278   1.310       .  A
N1277     Mn1279   2.142       .  S
N1278      C1280   1.334       .  A
Mn1279    Cl1303   2.519       .  S
C1280      C2502   1.484       .  S
C1281      C2665   1.487       .  S
N1282      N1283   1.311       .  A
N1282      N1288   1.308       .  A
N1282     Mn1290   2.158       .  S
N1283      C1291   1.350       .  A
N1284      N1286   1.309       .  A
N1284      N1285   1.316       .  A
N1284     Mn1302   2.168       .  S
N1285      C1292   1.349       .  A
N1286      N1287   1.318       .  A
N1286     Mn1290   2.180       .  S
N1287      C1292   1.351       .  A
N1288      N1289   1.322       .  A
N1288     Mn1302   2.185       .  S
N1289      C1291   1.355       .  A
Mn1290    Cl1303   2.540       .  S
C1291      C2522   1.475       .  S
C1292      C2532   1.455       .  S
N1293      N1294   1.337       .  A
N1293      N1299   1.319       .  A
N1293     Mn1301   2.301       .  S
N1294      C1304   1.372       .  A
N1295      N1296   1.306       .  A
N1295      N1297   1.317       .  A
N1295     Mn1302   2.125       .  S
N1296      C1305   1.331       .  A
N1297      N1298   1.340       .  A
N1297     Mn1301   2.318       .  S
N1298      C1305   1.378       .  A
N1299      N1300   1.311       .  A
N1299     Mn1302   2.150       .  S
N1300      C1304   1.336       .  A
Mn1301    Cl1303   2.589       .  S
Mn1302    Cl1303   2.508       .  S
C1304      C2495   1.487       .  S
C1305      C2565   1.502       .  S
N1306      N1307   1.337       .  A
N1306      N1312   1.320       .  A
N1306     Mn1335   2.320       .  S
N1307      C1314   1.374       .  A
N1308      N1310   1.320       .  A
N1308      N1309   1.308       .  A
N1308     Mn1324   2.139       .  S
N1309      C1315   1.333       .  A
N1310      N1311   1.338       .  A
N1310     Mn1335   2.310       .  S
N1311      C1315   1.373       .  A
N1312      N1313   1.311       .  A
N1312     Mn1324   2.137       .  S
N1313      C1314   1.334       .  A
C1314      C3212   1.490       .  S
C1315      C2472   1.484       .  S
N1316      N1322   1.310       .  A
N1316      N1317   1.317       .  A
N1316     Mn1346   2.178       .  S
N1317      C1325   1.352       .  A
N1318      N1319   1.324       .  A
N1318      N1320   1.309       .  A
N1318     Mn1324   2.195       .  S
N1319      C1326   1.358       .  A
N1320      N1321   1.310       .  A
N1320     Mn1346   2.164       .  S
N1321      C1326   1.346       .  A
N1322      N1323   1.319       .  A
N1322     Mn1324   2.183       .  S
N1323      C1325   1.352       .  A
Mn1324    Cl1348   2.524       .  S
C1325      C2462   1.466       .  S
C1326      C2755   1.480       .  S
N1327      N1328   1.341       .  A
N1327      N1333   1.318       .  A
N1327     Mn1335   2.327       .  S
N1328      C1336   1.377       .  A
N1329      N1331   1.317       .  A
N1329      N1330   1.307       .  A
N1329     Mn1347   2.129       .  S
N1330      C1337   1.334       .  A
N1331      N1332   1.341       .  A
N1331     Mn1335   2.323       .  S
N1332      C1337   1.378       .  A
N1333      N1334   1.309       .  A
N1333     Mn1347   2.128       .  S
N1334      C1336   1.333       .  A
Mn1335    Cl1348   2.581       .  S
C1336      C2442   1.495       .  S
C1337      C3175   1.501       .  S
N1338      N1339   1.318       .  A
N1338      N1344   1.310       .  A
N1338     Mn1346   2.189       .  S
N1339      C1349   1.352       .  A
N1340      N1341   1.319       .  A
N1340      N1342   1.310       .  A
N1340     Mn1347   2.170       .  S
N1341      C1350   1.350       .  A
N1342      N1343   1.312       .  A
N1342     Mn1346   2.165       .  S
N1343      C1350   1.348       .  A
N1344      N1345   1.317       .  A
N1344     Mn1347   2.165       .  S
N1345      C1349   1.348       .  A
Mn1346    Cl1348   2.540       .  S
Mn1347    Cl1348   2.515       .  S
C1349      C2482   1.454       .  S
C1350      C2452   1.453       .  S
N1351      N1352   1.310       .  A
N1351      N1357   1.306       .  A
N1351     Mn1380   2.169       .  S
N1352      C1359   1.351       .  A
N1353      N1355   1.307       .  A
N1353      N1354   1.326       .  A
N1353     Mn1369   2.199       .  S
N1354      C1360   1.359       .  A
N1355      N1356   1.307       .  A
N1355     Mn1380   2.144       .  S
N1356      C1360   1.342       .  A
N1357      N1358   1.321       .  A
N1357     Mn1369   2.159       .  S
N1358      C1359   1.353       .  A
C1359      C2402   1.474       .  S
C1360      C2415   1.468       .  S
N1361      N1367   1.318       .  A
N1361      N1362   1.342       .  A
N1361     Mn1391   2.328       .  S
N1362      C1370   1.380       .  A
N1363      N1364   1.310       .  A
N1363      N1365   1.320       .  A
N1363     Mn1369   2.141       .  S
N1364      C1371   1.335       .  A
N1365      N1366   1.337       .  A
N1365     Mn1391   2.309       .  S
N1366      C1371   1.372       .  A
N1367      N1368   1.301       .  A
N1367     Mn1369   2.106       .  S
N1368      C1370   1.329       .  A
Mn1369    Cl1393   2.541       .  S
C1370      C2422   1.497       .  S
C1371      C2882   1.487       .  S
N1372      N1373   1.309       .  A
N1372      N1378   1.308       .  A
N1372     Mn1380   2.158       .  S
N1373      C1381   1.345       .  A
N1374      N1376   1.307       .  A
N1374      N1375   1.324       .  A
N1374     Mn1392   2.185       .  S
N1375      C1382   1.359       .  A
N1376      N1377   1.306       .  A
N1376     Mn1380   2.148       .  S
N1377      C1382   1.342       .  A
N1378      N1379   1.324       .  A
N1378     Mn1392   2.189       .  S
N1379      C1381   1.356       .  A
Mn1380    Cl1393   2.488       .  S
C1381      C2432   1.466       .  S
C1382      C2542   1.473       .  S
N1383      N1384   1.339       .  A
N1383      N1389   1.320       .  A
N1383     Mn1391   2.319       .  S
N1384      C1394   1.375       .  A
N1385      N1386   1.309       .  A
N1385      N1387   1.320       .  A
N1385     Mn1392   2.135       .  S
N1386      C1395   1.332       .  A
N1387      N1388   1.337       .  A
N1387     Mn1391   2.311       .  S
N1388      C1395   1.373       .  A
N1389      N1390   1.309       .  A
N1389     Mn1392   2.142       .  S
N1390      C1394   1.336       .  A
Mn1391    Cl1393   2.564       .  S
Mn1392    Cl1393   2.545       .  S
C1394      C2645   1.497       .  S
C1395      C2475   1.482       .  S
N1396      N1397   1.337       .  A
N1396      N1402   1.319       .  A
N1396     Mn1425   2.309       .  S
N1397      C1404   1.375       .  A
N1398      N1400   1.320       .  A
N1398      N1399   1.308       .  A
N1398     Mn1414   2.130       .  S
N1399      C1405   1.332       .  A
N1400      N1401   1.337       .  A
N1400     Mn1425   2.313       .  S
N1401      C1405   1.373       .  A
N1402      N1403   1.307       .  A
N1402     Mn1414   2.137       .  S
N1403      C1404   1.336       .  A
C1404      C4045   1.502       .  S
C1405      C2382   1.481       .  S
N1406      N1412   1.306       .  A
N1406      N1407   1.307       .  A
N1406     Mn1436   2.155       .  S
N1407      C1415   1.348       .  A
N1408      N1409   1.322       .  A
N1408      N1410   1.308       .  A
N1408     Mn1414   2.177       .  S
N1409      C1416   1.354       .  A
N1410      N1411   1.311       .  A
N1410     Mn1436   2.158       .  S
N1411      C1416   1.348       .  A
N1412      N1413   1.325       .  A
N1412     Mn1414   2.188       .  S
N1413      C1415   1.358       .  A
Mn1414    Cl1438   2.540       .  S
C1415      C2975   1.478       .  S
C1416      C2392   1.459       .  S
N1417      N1418   1.340       .  A
N1417      N1423   1.318       .  A
N1417     Mn1425   2.318       .  S
N1418      C1426   1.378       .  A
N1419      N1421   1.320       .  A
N1419      N1420   1.313       .  A
N1419     Mn1437   2.148       .  S
N1420      C1427   1.337       .  A
N1421      N1422   1.337       .  A
N1421     Mn1425   2.314       .  S
N1422      C1427   1.372       .  A
N1423      N1424   1.306       .  A
N1423     Mn1437   2.129       .  S
N1424      C1426   1.334       .  A
Mn1425    Cl1438   2.547       .  S
C1426      C2375   1.506       .  S
C1427      C3822   1.490       .  S
N1428      N1429   1.310       .  A
N1428      N1434   1.309       .  A
N1428     Mn1436   2.159       .  S
N1429      C1439   1.346       .  A
N1430      N1431   1.322       .  A
N1430      N1432   1.308       .  A
N1430     Mn1437   2.183       .  S
N1431      C1440   1.355       .  A
N1432      N1433   1.310       .  A
N1432     Mn1436   2.156       .  S
N1433      C1440   1.348       .  A
N1434      N1435   1.321       .  A
N1434     Mn1437   2.176       .  S
N1435      C1439   1.354       .  A
Mn1436    Cl1438   2.515       .  S
Mn1437    Cl1438   2.539       .  S
C1439      C2685   1.461       .  S
C1440      C2612   1.460       .  S
N1441      N1442   1.308       .  A
N1441      N1447   1.306       .  A
N1441     Mn1470   2.148       .  S
N1442      C1449   1.347       .  A
N1443      N1445   1.306       .  A
N1443      N1444   1.320       .  A
N1443     Mn1459   2.172       .  S
N1444      C1450   1.353       .  A
N1445      N1446   1.312       .  A
N1445     Mn1470   2.162       .  S
N1446      C1450   1.349       .  A
N1447      N1448   1.324       .  A
N1447     Mn1459   2.188       .  S
N1448      C1449   1.357       .  A
C1449      C2365   1.470       .  S
C1450      C2555   1.453       .  S
N1451      N1457   1.320       .  A
N1451      N1452   1.337       .  A
N1451     Mn1481   2.301       .  S
N1452      C1460   1.372       .  A
N1453      N1454   1.304       .  A
N1453      N1455   1.318       .  A
N1453     Mn1459   2.121       .  S
N1454      C1461   1.329       .  A
N1455      N1456   1.340       .  A
N1455     Mn1481   2.323       .  S
N1456      C1461   1.379       .  A
N1457      N1458   1.309       .  A
N1457     Mn1459   2.144       .  S
N1458      C1460   1.335       .  A
Mn1459    Cl1483   2.534       .  S
C1460      C2505   1.482       .  S
C1461      C3905   1.502       .  S
N1462      N1463   1.302       .  A
N1462      N1468   1.307       .  A
N1462     Mn1470   2.129       .  S
N1463      C1471   1.337       .  A
N1464      N1466   1.308       .  A
N1464      N1465   1.323       .  A
N1464     Mn1482   2.190       .  S
N1465      C1472   1.359       .  A
N1466      N1467   1.311       .  A
N1466     Mn1470   2.157       .  S
N1467      C1472   1.345       .  A
N1468      N1469   1.327       .  A
N1468     Mn1482   2.202       .  S
N1469      C1471   1.362       .  A
Mn1470    Cl1483   2.517       .  S
C1471      C2815   1.471       .  S
C1472      C2865   1.478       .  S
N1473      N1474   1.337       .  A
N1473      N1479   1.321       .  A
N1473     Mn1481   2.317       .  S
N1474      C1484   1.374       .  A
N1475      N1476   1.312       .  A
N1475      N1477   1.321       .  A
N1475     Mn1482   2.152       .  S
N1476      C1485   1.336       .  A
N1477      N1478   1.337       .  A
N1477     Mn1481   2.317       .  S
N1478      C1485   1.373       .  A
N1479      N1480   1.311       .  A
N1479     Mn1482   2.155       .  S
N1480      C1484   1.339       .  A
Mn1481    Cl1483   2.549       .  S
Mn1482    Cl1483   2.546       .  S
C1484      C3765   1.504       .  S
C1485      C2355   1.490       .  S
N1486      N1487   1.304       .  A
N1486      N1492   1.308       .  A
N1486     Mn1515   2.141       .  S
N1487      C1494   1.345       .  A
N1488      N1490   1.309       .  A
N1488      N1489   1.322       .  A
N1488     Mn1504   2.184       .  S
N1489      C1495   1.354       .  A
N1490      N1491   1.316       .  A
N1490     Mn1515   2.182       .  S
N1491      C1495   1.353       .  A
N1492      N1493   1.324       .  A
N1492     Mn1504   2.185       .  S
N1493      C1494   1.357       .  A
C1494      C2342   1.468       .  S
C1495      C2652   1.481       .  S
N1496      N1502   1.321       .  A
N1496      N1497   1.337       .  A
N1496     Mn1526   2.312       .  S
N1497      C1505   1.372       .  A
N1498      N1499   1.311       .  A
N1498      N1500   1.321       .  A
N1498     Mn1504   2.142       .  S
N1499      C1506   1.335       .  A
N1500      N1501   1.338       .  A
N1500     Mn1526   2.320       .  S
N1501      C1506   1.374       .  A
N1502      N1503   1.310       .  A
N1502     Mn1504   2.143       .  S
N1503      C1505   1.335       .  A
Mn1504    Cl1528   2.544       .  S
C1505      C2492   1.484       .  S
C1506      C3855   1.488       .  S
N1507      N1508   1.306       .  A
N1507      N1513   1.307       .  A
N1507     Mn1515   2.146       .  S
N1508      C1516   1.342       .  A
N1509      N1511   1.307       .  A
N1509      N1510   1.319       .  A
N1509     Mn1527   2.171       .  S
N1510      C1517   1.352       .  A
N1511      N1512   1.317       .  A
N1511     Mn1515   2.184       .  S
N1512      C1517   1.354       .  A
N1513      N1514   1.326       .  A
N1513     Mn1527   2.194       .  S
N1514      C1516   1.359       .  A
Mn1515    Cl1528   2.528       .  S
C1516      C2922   1.476       .  S
C1517      C2335   1.481       .  S
N1518      N1519   1.337       .  A
N1518      N1524   1.321       .  A
N1518     Mn1526   2.307       .  S
N1519      C1529   1.372       .  A
N1520      N1521   1.305       .  A
N1520      N1522   1.318       .  A
N1520     Mn1527   2.129       .  S
N1521      C1530   1.334       .  A
N1522      N1523   1.339       .  A
N1522     Mn1526   2.313       .  S
N1523      C1530   1.377       .  A
N1524      N1525   1.311       .  A
N1524     Mn1527   2.150       .  S
N1525      C1529   1.335       .  A
Mn1526    Cl1528   2.554       .  S
Mn1527    Cl1528   2.534       .  S
C1529      C3805   1.486       .  S
C1530      C2325   1.503       .  S
N1531      N1532   1.337       .  A
N1531      N1537   1.320       .  A
N1531     Mn1560   2.311       .  S
N1532      C1539   1.373       .  A
N1533      N1535   1.318       .  A
N1533      N1534   1.308       .  A
N1533     Mn1549   2.132       .  S
N1534      C1540   1.335       .  A
N1535      N1536   1.337       .  A
N1535     Mn1560   2.307       .  S
N1536      C1540   1.375       .  A
N1537      N1538   1.311       .  A
N1537     Mn1549   2.139       .  S
N1538      C1539   1.335       .  A
C1539      C2955   1.485       .  S
C1540      C2322   1.498       .  S
N1541      N1547   1.308       .  A
N1541      N1542   1.317       .  A
N1541     Mn1571   2.179       .  S
N1542      C1550   1.351       .  A
N1543      N1544   1.320       .  A
N1543      N1545   1.308       .  A
N1543     Mn1549   2.171       .  S
N1544      C1551   1.352       .  A
N1545      N1546   1.308       .  A
N1545     Mn1571   2.149       .  S
N1546      C1551   1.345       .  A
N1547      N1548   1.318       .  A
N1547     Mn1549   2.169       .  S
N1548      C1550   1.351       .  A
Mn1549    Cl1573   2.528       .  S
C1550      C2535   1.456       .  S
C1551      C2302   1.453       .  S
N1552      N1553   1.337       .  A
N1552      N1558   1.321       .  A
N1552     Mn1560   2.314       .  S
N1553      C1561   1.373       .  A
N1554      N1556   1.321       .  A
N1554      N1555   1.309       .  A
N1554     Mn1572   2.144       .  S
N1555      C1562   1.334       .  A
N1556      N1557   1.336       .  A
N1556     Mn1560   2.304       .  S
N1557      C1562   1.371       .  A
N1558      N1559   1.310       .  A
N1558     Mn1572   2.141       .  S
N1559      C1561   1.334       .  A
Mn1560    Cl1573   2.557       .  S
C1561      C2895   1.484       .  S
C1562      C2385   1.481       .  S
N1563      N1564   1.318       .  A
N1563      N1569   1.310       .  A
N1563     Mn1571   2.177       .  S
N1564      C1574   1.350       .  A
N1565      N1566   1.325       .  A
N1565      N1567   1.307       .  A
N1565     Mn1572   2.191       .  S
N1566      C1575   1.360       .  A
N1567      N1568   1.305       .  A
N1567     Mn1571   2.141       .  S
N1568      C1575   1.340       .  A
N1569      N1570   1.319       .  A
N1569     Mn1572   2.180       .  S
N1570      C1574   1.352       .  A
Mn1571    Cl1573   2.532       .  S
Mn1572    Cl1573   2.531       .  S
C1574      C2312   1.464       .  S
C1575      C2405   1.472       .  S
N1576      N1577   1.313       .  A
N1576      N1582   1.309       .  A
N1576     Mn1605   2.165       .  S
N1577      C1584   1.349       .  A
N1578      N1580   1.310       .  A
N1578      N1579   1.319       .  A
N1578     Mn1594   2.185       .  S
N1579      C1585   1.352       .  A
N1580      N1581   1.316       .  A
N1580     Mn1605   2.174       .  S
N1581      C1585   1.349       .  A
N1582      N1583   1.319       .  A
N1582     Mn1594   2.174       .  S
N1583      C1584   1.351       .  A
C1584      C2282   1.456       .  S
C1585      C2485   1.456       .  S
N1586      N1592   1.318       .  A
N1586      N1587   1.338       .  A
N1586     Mn1616   2.306       .  S
N1587      C1595   1.375       .  A
N1588      N1589   1.309       .  A
N1588      N1590   1.319       .  A
N1588     Mn1594   2.146       .  S
N1589      C1596   1.337       .  A
N1590      N1591   1.338       .  A
N1590     Mn1616   2.307       .  S
N1591      C1596   1.375       .  A
N1592      N1593   1.307       .  A
N1592     Mn1594   2.132       .  S
N1593      C1595   1.332       .  A
Mn1594    Cl1618   2.499       .  S
C1595      C3165   1.495       .  S
C1596      C4015   1.505       .  S
N1597      N1598   1.313       .  A
N1597      N1603   1.309       .  A
N1597     Mn1605   2.162       .  S
N1598      C1606   1.349       .  A
N1599      N1601   1.309       .  A
N1599      N1600   1.318       .  A
N1599     Mn1617   2.174       .  S
N1600      C1607   1.353       .  A
N1601      N1602   1.315       .  A
N1601     Mn1605   2.174       .  S
N1602      C1607   1.351       .  A
N1603      N1604   1.319       .  A
N1603     Mn1617   2.178       .  S
N1604      C1606   1.351       .  A
Mn1605    Cl1618   2.549       .  S
C1606      C2725   1.449       .  S
C1607      C2292   1.470       .  S
N1608      N1609   1.339       .  A
N1608      N1614   1.317       .  A
N1608     Mn1616   2.320       .  S
N1609      C1619   1.377       .  A
N1610      N1611   1.306       .  A
N1610      N1612   1.318       .  A
N1610     Mn1617   2.128       .  S
N1611      C1620   1.333       .  A
N1612      N1613   1.343       .  A
N1612     Mn1616   2.330       .  S
N1613      C1620   1.380       .  A
N1614      N1615   1.310       .  A
N1614     Mn1617   2.137       .  S
N1615      C1619   1.337       .  A
Mn1616    Cl1618   2.594       .  S
Mn1617    Cl1618   2.506       .  S
C1619      C3735   1.512       .  S
C1620      C3015   1.509       .  S
N1621      N1622   1.310       .  A
N1621      N1627   1.307       .  A
N1621     Mn1650   2.156       .  S
N1622      C1629   1.349       .  A
N1623      N1625   1.307       .  A
N1623      N1624   1.323       .  A
N1623     Mn1639   2.192       .  S
N1624      C1630   1.358       .  A
N1625      N1626   1.310       .  A
N1625     Mn1650   2.150       .  S
N1626      C1630   1.345       .  A
N1627      N1628   1.319       .  A
N1627     Mn1639   2.161       .  S
N1628      C1629   1.351       .  A
C1629      C2305   1.453       .  S
C1630      C2525   1.475       .  S
N1631      N1637   1.317       .  A
N1631      N1632   1.339       .  A
N1631     Mn1661   2.311       .  S
N1632      C1640   1.376       .  A
N1633      N1634   1.312       .  A
N1633      N1635   1.319       .  A
N1633     Mn1639   2.154       .  S
N1634      C1641   1.337       .  A
N1635      N1636   1.336       .  A
N1635     Mn1661   2.304       .  S
N1636      C1641   1.374       .  A
N1637      N1638   1.304       .  A
N1637     Mn1639   2.119       .  S
N1638      C1640   1.330       .  A
Mn1639    Cl1663   2.516       .  S
C1640      C2575   1.495       .  S
C1641      C2945   1.501       .  S
N1642      N1643   1.314       .  A
N1642      N1648   1.309       .  A
N1642     Mn1650   2.169       .  S
N1643      C1651   1.351       .  A
N1644      N1646   1.307       .  A
N1644      N1645   1.325       .  A
N1644     Mn1662   2.192       .  S
N1645      C1652   1.359       .  A
N1646      N1647   1.305       .  A
N1646     Mn1650   2.143       .  S
N1647      C1652   1.341       .  A
N1648      N1649   1.321       .  A
N1648     Mn1662   2.184       .  S
N1649      C1651   1.354       .  A
Mn1650    Cl1663   2.519       .  S
C1651      C2262   1.474       .  S
C1652      C2272   1.471       .  S
N1653      N1654   1.338       .  A
N1653      N1659   1.320       .  A
N1653     Mn1661   2.315       .  S
N1654      C1664   1.375       .  A
N1655      N1656   1.310       .  A
N1655      N1657   1.321       .  A
N1655     Mn1662   2.147       .  S
N1656      C1665   1.335       .  A
N1657      N1658   1.335       .  A
N1657     Mn1661   2.299       .  S
N1658      C1665   1.371       .  A
N1659      N1660   1.307       .  A
N1659     Mn1662   2.128       .  S
N1660      C1664   1.332       .  A
Mn1661    Cl1663   2.580       .  S
Mn1662    Cl1663   2.528       .  S
C1664      C2622   1.493       .  S
C1665      C2795   1.480       .  S
N1666      N1667   1.338       .  A
N1666      N1672   1.319       .  A
N1666     Mn1695   2.309       .  S
N1667      C1674   1.374       .  A
N1668      N1670   1.318       .  A
N1668      N1669   1.308       .  A
N1668     Mn1684   2.138       .  S
N1669      C1675   1.337       .  A
N1670      N1671   1.338       .  A
N1670     Mn1695   2.306       .  S
N1671      C1675   1.375       .  A
N1672      N1673   1.309       .  A
N1672     Mn1684   2.146       .  S
N1673      C1674   1.338       .  A
C1674      C3895   1.501       .  S
C1675      C3535   1.501       .  S
N1676      N1682   1.308       .  A
N1676      N1677   1.313       .  A
N1676     Mn1706   2.165       .  S
N1677      C1685   1.350       .  A
N1678      N1679   1.321       .  A
N1678      N1680   1.309       .  A
N1678     Mn1684   2.185       .  S
N1679      C1686   1.354       .  A
N1680      N1681   1.310       .  A
N1680     Mn1706   2.150       .  S
N1681      C1686   1.346       .  A
N1682      N1683   1.323       .  A
N1682     Mn1684   2.195       .  S
N1683      C1685   1.357       .  A
Mn1684    Cl1708   2.528       .  S
C1685      C2242   1.481       .  S
C1686      C2252   1.455       .  S
N1687      N1688   1.339       .  A
N1687      N1693   1.318       .  A
N1687     Mn1695   2.311       .  S
N1688      C1696   1.376       .  A
N1689      N1691   1.319       .  A
N1689      N1690   1.312       .  A
N1689     Mn1707   2.148       .  S
N1690      C1697   1.338       .  A
N1691      N1692   1.337       .  A
N1691     Mn1695   2.311       .  S
N1692      C1697   1.374       .  A
N1693      N1694   1.307       .  A
N1693     Mn1707   2.133       .  S
N1694      C1696   1.336       .  A
Mn1695    Cl1708   2.572       .  S
C1696      C3365   1.503       .  S
C1697      C3725   1.500       .  S
N1698      N1699   1.314       .  A
N1698      N1704   1.309       .  A
N1698     Mn1706   2.171       .  S
N1699      C1709   1.351       .  A
N1700      N1701   1.323       .  A
N1700      N1702   1.308       .  A
N1700     Mn1707   2.187       .  S
N1701      C1710   1.356       .  A
N1702      N1703   1.307       .  A
N1702     Mn1706   2.147       .  S
N1703      C1710   1.346       .  A
N1704      N1705   1.319       .  A
N1704     Mn1707   2.177       .  S
N1705      C1709   1.353       .  A
Mn1706    Cl1708   2.518       .  S
Mn1707    Cl1708   2.531       .  S
C1709      C2295   1.473       .  S
C1710      C2745   1.462       .  S
N1711      N1712   1.308       .  A
N1711      N1717   1.309       .  A
N1711     Mn1740   2.164       .  S
N1712      C1719   1.349       .  A
N1713      N1715   1.310       .  A
N1713      N1714   1.318       .  A
N1713     Mn1729   2.176       .  S
N1714      C1720   1.351       .  A
N1715      N1716   1.317       .  A
N1715     Mn1740   2.178       .  S
N1716      C1720   1.351       .  A
N1717      N1718   1.323       .  A
N1717     Mn1729   2.180       .  S
N1718      C1719   1.355       .  A
C1719      C2275   1.472       .  S
C1720      C2222   1.462       .  S
N1721      N1727   1.319       .  A
N1721      N1722   1.340       .  A
N1721     Mn1751   2.317       .  S
N1722      C1730   1.375       .  A
N1723      N1724   1.312       .  A
N1723      N1725   1.319       .  A
N1723     Mn1729   2.139       .  S
N1724      C1731   1.335       .  A
N1725      N1726   1.339       .  A
N1725     Mn1751   2.323       .  S
N1726      C1731   1.375       .  A
N1727      N1728   1.309       .  A
N1727     Mn1729   2.139       .  S
N1728      C1730   1.334       .  A
Mn1729    Cl1753   2.533       .  S
C1730      C2232   1.493       .  S
C1731      C2605   1.492       .  S
N1732      N1733   1.311       .  A
N1732      N1738   1.309       .  A
N1732     Mn1740   2.170       .  S
N1733      C1741   1.351       .  A
N1734      N1736   1.310       .  A
N1734      N1735   1.319       .  A
N1734     Mn1752   2.177       .  S
N1735      C1742   1.351       .  A
N1736      N1737   1.318       .  A
N1736     Mn1740   2.182       .  S
N1737      C1742   1.351       .  A
N1738      N1739   1.322       .  A
N1738     Mn1752   2.180       .  S
N1739      C1741   1.354       .  A
Mn1740    Cl1753   2.527       .  S
C1741      C2412   1.469       .  S
C1742      C2315   1.463       .  S
N1743      N1744   1.337       .  A
N1743      N1749   1.319       .  A
N1743     Mn1751   2.311       .  S
N1744      C1754   1.375       .  A
N1745      N1746   1.310       .  A
N1745      N1747   1.319       .  A
N1745     Mn1752   2.134       .  S
N1746      C1755   1.333       .  A
N1747      N1748   1.338       .  A
N1747     Mn1751   2.316       .  S
N1748      C1755   1.374       .  A
N1749      N1750   1.309       .  A
N1749     Mn1752   2.139       .  S
N1750      C1754   1.337       .  A
Mn1751    Cl1753   2.573       .  S
Mn1752    Cl1753   2.528       .  S
C1754      C2372   1.502       .  S
C1755      C2212   1.487       .  S
N1756      N1757   1.335       .  A
N1756      N1762   1.318       .  A
N1756     Mn1785   2.295       .  S
N1757      C1764   1.372       .  A
N1758      N1760   1.318       .  A
N1758      N1759   1.305       .  A
N1758     Mn1774   2.123       .  S
N1759      C1765   1.332       .  A
N1760      N1761   1.340       .  A
N1760     Mn1785   2.321       .  S
N1761      C1765   1.378       .  A
N1762      N1763   1.307       .  A
N1762     Mn1774   2.134       .  S
N1763      C1764   1.336       .  A
C1764      C4005   1.495       .  S
C1765      C2192   1.500       .  S
N1766      N1772   1.306       .  A
N1766      N1767   1.310       .  A
N1766     Mn1796   2.152       .  S
N1767      C1775   1.348       .  A
N1768      N1769   1.320       .  A
N1768      N1770   1.308       .  A
N1768     Mn1774   2.171       .  S
N1769      C1776   1.352       .  A
N1770      N1771   1.312       .  A
N1770     Mn1796   2.162       .  S
N1771      C1776   1.348       .  A
N1772      N1773   1.321       .  A
N1772     Mn1774   2.174       .  S
N1773      C1775   1.353       .  A
Mn1774    Cl1798   2.518       .  S
C1775      C2455   1.454       .  S
C1776      C2285   1.457       .  S
N1777      N1778   1.337       .  A
N1777      N1783   1.320       .  A
N1777     Mn1785   2.314       .  S
N1778      C1786   1.374       .  A
N1779      N1781   1.319       .  A
N1779      N1780   1.307       .  A
N1779     Mn1797   2.137       .  S
N1780      C1787   1.333       .  A
N1781      N1782   1.341       .  A
N1781     Mn1785   2.327       .  S
N1782      C1787   1.378       .  A
N1783      N1784   1.310       .  A
N1783     Mn1797   2.135       .  S
N1784      C1786   1.333       .  A
Mn1785    Cl1798   2.558       .  S
C1786      C2235   1.485       .  S
C1787      C3875   1.508       .  S
N1788      N1789   1.311       .  A
N1788      N1794   1.309       .  A
N1788     Mn1796   2.153       .  S
N1789      C1799   1.345       .  A
N1790      N1791   1.322       .  A
N1790      N1792   1.308       .  A
N1790     Mn1797   2.179       .  S
N1791      C1800   1.354       .  A
N1792      N1793   1.309       .  A
N1792     Mn1796   2.155       .  S
N1793      C1800   1.348       .  A
N1794      N1795   1.320       .  A
N1794     Mn1797   2.179       .  S
N1795      C1799   1.353       .  A
Mn1796    Cl1798   2.528       .  S
Mn1797    Cl1798   2.528       .  S
C1799      C2255   1.457       .  S
C1800      C2202   1.458       .  S
N1801      N1802   1.310       .  A
N1801      N1807   1.309       .  A
N1801     Mn1830   2.162       .  S
N1802      C1809   1.349       .  A
N1803      N1805   1.310       .  A
N1803      N1804   1.318       .  A
N1803     Mn1819   2.176       .  S
N1804      C1810   1.350       .  A
N1805      N1806   1.319       .  A
N1805     Mn1830   2.188       .  S
N1806      C1810   1.353       .  A
N1807      N1808   1.321       .  A
N1807     Mn1819   2.176       .  S
N1808      C1809   1.353       .  A
C1809      C2735   1.465       .  S
C1810      C2465   1.468       .  S
N1811      N1817   1.318       .  A
N1811      N1812   1.336       .  A
N1811     Mn1841   2.303       .  S
N1812      C1820   1.374       .  A
N1813      N1814   1.310       .  A
N1813      N1815   1.319       .  A
N1813     Mn1819   2.136       .  S
N1814      C1821   1.335       .  A
N1815      N1816   1.334       .  A
N1815     Mn1841   2.299       .  S
N1816      C1821   1.371       .  A
N1817      N1818   1.307       .  A
N1817     Mn1819   2.123       .  S
N1818      C1820   1.332       .  A
Mn1819    Cl1843   2.526       .  S
C1820      C2425   1.483       .  S
C1821      C3665   1.483       .  S
N1822      N1823   1.310       .  A
N1822      N1828   1.310       .  A
N1822     Mn1830   2.158       .  S
N1823      C1831   1.346       .  A
N1824      N1826   1.310       .  A
N1824      N1825   1.321       .  A
N1824     Mn1842   2.184       .  S
N1825      C1832   1.356       .  A
N1826      N1827   1.314       .  A
N1826     Mn1830   2.181       .  S
N1827      C1832   1.349       .  A
N1828      N1829   1.321       .  A
N1828     Mn1842   2.184       .  S
N1829      C1831   1.352       .  A
Mn1830    Cl1843   2.527       .  S
C1831      C2205   1.458       .  S
C1832      C2245   1.478       .  S
N1833      N1834   1.336       .  A
N1833      N1839   1.319       .  A
N1833     Mn1841   2.302       .  S
N1834      C1844   1.371       .  A
N1835      N1836   1.309       .  A
N1835      N1837   1.319       .  A
N1835     Mn1842   2.141       .  S
N1836      C1845   1.335       .  A
N1837      N1838   1.340       .  A
N1837     Mn1841   2.318       .  S
N1838      C1845   1.375       .  A
N1839      N1840   1.313       .  A
N1839     Mn1842   2.150       .  S
N1840      C1844   1.338       .  A
Mn1841    Cl1843   2.568       .  S
Mn1842    Cl1843   2.535       .  S
C1844      C3515   1.489       .  S
C1845      C2215   1.494       .  S
N1846      N1847   1.340       .  A
N1846      N1852   1.317       .  A
N1846     Mn1875   2.315       .  S
N1847      C1854   1.378       .  A
N1848      N1850   1.317       .  A
N1848      N1849   1.306       .  A
N1848     Mn1864   2.128       .  S
N1849      C1855   1.334       .  A
N1850      N1851   1.340       .  A
N1850     Mn1875   2.315       .  S
N1851      C1855   1.378       .  A
N1852      N1853   1.306       .  A
N1852     Mn1864   2.126       .  S
N1853      C1854   1.334       .  A
C1854      C2802   1.506       .  S
C1855      C2195   1.505       .  S
N1856      N1862   1.309       .  A
N1856      N1857   1.319       .  A
N1856     Mn1886   2.187       .  S
N1857      C1865   1.353       .  A
N1858      N1859   1.318       .  A
N1858      N1860   1.309       .  A
N1858     Mn1864   2.171       .  S
N1859      C1866   1.351       .  A
N1860      N1861   1.317       .  A
N1860     Mn1886   2.182       .  S
N1861      C1866   1.354       .  A
N1862      N1863   1.316       .  A
N1862     Mn1864   2.166       .  S
N1863      C1865   1.348       .  A
Mn1864    Cl1888   2.494       .  S
C1865      C2225   1.463       .  S
C1866      C2265   1.471       .  S
N1867      N1868   1.339       .  A
N1867      N1873   1.320       .  A
N1867     Mn1875   2.325       .  S
N1868      C1876   1.376       .  A
N1869      N1871   1.320       .  A
N1869      N1870   1.311       .  A
N1869     Mn1887   2.150       .  S
N1870      C1877   1.337       .  A
N1871      N1872   1.339       .  A
N1871     Mn1875   2.316       .  S
N1872      C1877   1.374       .  A
N1873      N1874   1.310       .  A
N1873     Mn1887   2.135       .  S
N1874      C1876   1.333       .  A
Mn1875    Cl1888   2.596       .  S
C1876      C2445   1.490       .  S
C1877      C2352   1.495       .  S
N1878      N1879   1.318       .  A
N1878      N1884   1.311       .  A
N1878     Mn1886   2.186       .  S
N1879      C1889   1.353       .  A
N1880      N1881   1.323       .  A
N1880      N1882   1.311       .  A
N1880     Mn1887   2.189       .  S
N1881      C1890   1.355       .  A
N1882      N1883   1.310       .  A
N1882     Mn1886   2.169       .  S
N1883      C1890   1.349       .  A
N1884      N1885   1.316       .  A
N1884     Mn1887   2.167       .  S
N1885      C1889   1.347       .  A
Mn1886    Cl1888   2.556       .  S
Mn1887    Cl1888   2.514       .  S
C1889      C2515   1.463       .  S
C1890      C2435   1.467       .  S
N1891      N1892   1.341       .  A
N1891      N1897   1.320       .  A
N1891     Mn1920   2.328       .  S
N1892      C1899   1.377       .  A
N1893      N1895   1.319       .  A
N1893      N1894   1.306       .  A
N1893     Mn1909   2.124       .  S
N1894      C1900   1.331       .  A
N1895      N1896   1.340       .  A
N1895     Mn1920   2.315       .  S
N1896      C1900   1.375       .  A
N1897      N1898   1.309       .  A
N1897     Mn1909   2.146       .  S
N1898      C1899   1.336       .  A
C1899      C3832   1.503       .  S
C1900      C3565   1.486       .  S
N1901      N1907   1.309       .  A
N1901      N1902   1.316       .  A
N1901     Mn1931   2.173       .  S
N1902      C1910   1.351       .  A
N1903      N1904   1.322       .  A
N1903      N1905   1.306       .  A
N1903     Mn1909   2.170       .  S
N1904      C1911   1.355       .  A
N1905      N1906   1.306   1_556  A
N1905     Mn1931   2.151       .  S
N1906      C1911   1.343   1_554  A
N1907      N1908   1.320       .  A
N1907     Mn1909   2.184       .  S
N1908      C1910   1.354       .  A
Mn1909    Cl1933   2.532       .  S
C1910      C2672   1.471   1_556  S
C1911      C2345   1.467   1_556  S
N1912      N1913   1.341       .  A
N1912      N1918   1.320       .  A
N1912     Mn1920   2.325       .  S
N1913      C1921   1.376       .  A
N1914      N1916   1.321       .  A
N1914      N1915   1.310       .  A
N1914     Mn1932   2.137       .  S
N1915      C1922   1.334       .  A
N1916      N1917   1.337       .  A
N1916     Mn1920   2.316       .  S
N1917      C1922   1.373       .  A
N1918      N1919   1.308       .  A
N1918     Mn1932   2.137       .  S
N1919      C1921   1.333       .  A
Mn1920    Cl1933   2.559       .  S
C1921      C3622   1.495       .  S
C1922      C3745   1.487       .  S
N1923      N1924   1.310   1_556  A
N1923      N1929   1.309       .  A
N1923     Mn1931   2.168       .  S
N1924      C1934   1.346   1_554  A
N1925      N1926   1.320       .  A
N1925      N1927   1.309       .  A
N1925     Mn1932   2.177       .  S
N1926      C1935   1.351       .  A
N1927      N1928   1.313       .  A
N1927     Mn1931   2.162       .  S
N1928      C1935   1.348       .  A
N1929      N1930   1.324       .  A
N1929     Mn1932   2.185       .  S
N1930      C1934   1.357       .  A
Mn1931    Cl1933   2.529       .  S
Mn1932    Cl1933   2.534       .  S
C1934      C2182   1.473   1_556  S
C1935      C2772   1.456   1_556  S
N1936      N1937   1.312       .  A
N1936      N1942   1.310       .  A
N1936     Mn1965   2.166       .  S
N1937      C1944   1.348       .  A
N1938      N1940   1.311       .  A
N1938      N1939   1.318       .  A
N1938     Mn1954   2.176       .  S
N1939      C1945   1.351       .  A
N1940      N1941   1.319       .  A
N1940     Mn1965   2.194       .  S
N1941      C1945   1.354       .  A
N1942      N1943   1.320       .  A
N1942     Mn1954   2.177       .  S
N1943      C1944   1.351       .  A
C1944      C2395   1.459   1_565  S
C1945      C2995   1.465       .  S
N1946      N1952   1.319       .  A
N1946      N1947   1.336       .  A
N1946     Mn1976   2.302       .  S
N1947      C1955   1.373       .  A
N1948      N1949   1.308       .  A
N1948      N1950   1.318       .  A
N1948     Mn1954   2.133       .  S
N1949      C1956   1.333       .  A
N1950      N1951   1.338       .  A
N1950     Mn1976   2.311       .  S
N1951      C1956   1.376       .  A
N1952      N1953   1.311       .  A
N1952     Mn1954   2.144       .  S
N1953      C1955   1.335       .  A
Mn1954    Cl1978   2.516       .  S
C1955      C3132   1.486       .  S
C1956      C4075   1.499       .  S
N1957      N1958   1.310       .  A
N1957      N1963   1.309       .  A
N1957     Mn1965   2.161       .  S
N1958      C1966   1.346       .  A
N1959      N1961   1.310       .  A
N1959      N1960   1.315       .  A
N1959     Mn1977   2.165       .  S
N1960      C1967   1.348       .  A
N1961      N1962   1.318       .  A
N1961     Mn1965   2.183       .  S
N1962      C1967   1.353       .  A
N1963      N1964   1.324       .  A
N1963     Mn1977   2.194       .  S
N1964      C1966   1.358       .  A
Mn1965    Cl1978   2.543       .  S
C1966      C2172   1.478   1_565  S
C1967      C2692   1.462   1_565  S
N1968      N1969   1.338       .  A
N1968      N1974   1.318       .  A
N1968     Mn1976   2.304       .  S
N1969      C1979   1.375       .  A
N1970      N1971   1.309       .  A
N1970      N1972   1.319       .  A
N1970     Mn1977   2.128       .  S
N1971      C1980   1.332       .  A
N1972      N1973   1.339       .  A
N1972     Mn1976   2.320       .  S
N1973      C1980   1.375       .  A
N1974      N1975   1.310       .  A
N1974     Mn1977   2.152       .  S
N1975      C1979   1.339       .  A
Mn1976    Cl1978   2.585       .  S
Mn1977    Cl1978   2.517       .  S
C1979      C3995   1.507       .  S
C1980      C3025   1.488       .  S
N1981      N1982   1.316   1_556  A
N1981      N1987   1.308       .  A
N1981     Mn2010   2.175       .  S
N1982      C1989   1.351   1_554  A
N1983      N1985   1.308       .  A
N1983      N1984   1.324       .  A
N1983     Mn1999   2.191       .  S
N1984      C1990   1.356       .  A
N1985      N1986   1.308       .  A
N1985     Mn2010   2.147       .  S
N1986      C1990   1.343       .  A
N1987      N1988   1.318       .  A
N1987     Mn1999   2.165       .  S
N1988      C1989   1.352       .  A
C1989      C2852   1.464   1_556  S
C1990      C2162   1.463   1_556  S
N1991      N1997   1.320       .  A
N1991      N1992   1.342       .  A
N1991     Mn2021   2.334       .  S
N1992      C2000   1.378       .  A
N1993      N1994   1.309       .  A
N1993      N1995   1.319       .  A
N1993     Mn1999   2.141       .  S
N1994      C2001   1.335       .  A
N1995      N1996   1.339       .  A
N1995     Mn2021   2.315       .  S
N1996      C2001   1.375       .  A
N1997      N1998   1.306       .  A
N1997     Mn1999   2.124       .  S
N1998      C2000   1.331       .  A
Mn1999    Cl2023   2.523       .  S
C2000      C3385   1.493       .  S
C2001      C3985   1.496       .  S
N2002      N2003   1.312       .  A
N2002      N2008   1.309       .  A
N2002     Mn2010   2.169       .  S
N2003      C2011   1.349       .  A
N2004      N2006   1.308       .  A
N2004      N2005   1.323       .  A
N2004     Mn2022   2.186       .  S
N2005      C2012   1.356       .  A
N2006      N2007   1.309   1_556  A
N2006     Mn2010   2.152       .  S
N2007      C2012   1.345   1_554  A
N2008      N2009   1.319       .  A
N2008     Mn2022   2.168       .  S
N2009      C2011   1.351       .  A
Mn2010    Cl2023   2.516       .  S
C2011      C2585   1.453   1_556  S
C2012      C2362   1.468   1_556  S
N2013      N2014   1.342       .  A
N2013      N2019   1.319       .  A
N2013     Mn2021   2.331       .  S
N2014      C2024   1.379       .  A
N2015      N2016   1.310       .  A
N2015      N2017   1.319       .  A
N2015     Mn2022   2.135       .  S
N2016      C2025   1.334       .  A
N2017      N2018   1.337       .  A
N2017     Mn2021   2.315       .  S
N2018      C2025   1.376       .  A
N2019      N2020   1.305       .  A
N2019     Mn2022   2.121       .  S
N2020      C2024   1.332       .  A
Mn2021    Cl2023   2.580       .  S
Mn2022    Cl2023   2.521       .  S
C2024      C3925   1.502       .  S
C2025      C3475   1.496       .  S
N2026      N2027   1.338       .  A
N2026      N2032   1.322       .  A
N2026     Mn2055   2.327       .  S
N2027      C2034   1.375       .  A
N2028      N2030   1.322       .  A
N2028      N2029   1.311       .  A
N2028     Mn2044   2.147       .  S
N2029      C2035   1.335       .  A
N2030      N2031   1.338       .  A
N2030     Mn2055   2.320       .  S
N2031      C2035   1.373       .  A
N2032      N2033   1.310       .  A
N2032     Mn2044   2.140       .  S
N2033      C2034   1.333       .  A
C2034      C3425   1.487       .  S
C2035      C3272   1.488       .  S
N2036      N2042   1.307       .  A
N2036      N2037   1.306       .  A
N2036     Mn2066   2.154       .  S
N2037      C2045   1.347       .  A
N2038      N2039   1.325       .  A
N2038      N2040   1.309       .  A
N2038     Mn2044   2.195       .  S
N2039      C2046   1.357       .  A
N2040      N2041   1.308       .  A
N2040     Mn2066   2.147       .  S
N2041      C2046   1.343       .  A
N2042      N2043   1.325       .  A
N2042     Mn2044   2.183       .  S
N2043      C2045   1.358       .  A
Mn2044    Cl2068   2.549       .  S
C2045      C2832   1.475       .  S
C2046      C2595   1.464       .  S
N2047      N2048   1.337       .  A
N2047      N2053   1.319       .  A
N2047     Mn2055   2.306       .  S
N2048      C2056   1.374       .  A
N2049      N2051   1.319       .  A
N2049      N2050   1.306       .  A
N2049     Mn2067   2.133       .  S
N2050      C2057   1.330       .  A
N2051      N2052   1.342       .  A
N2051     Mn2055   2.328       .  S
N2052      C2057   1.380       .  A
N2053      N2054   1.307       .  A
N2053     Mn2067   2.136       .  S
N2054      C2056   1.336       .  A
Mn2055    Cl2068   2.550       .  S
C2056      C3332   1.499       .  S
C2057      C3395   1.509       .  S
N2058      N2059   1.311       .  A
N2058      N2064   1.306       .  A
N2058     Mn2066   2.157       .  S
N2059      C2069   1.350       .  A
N2060      N2061   1.326       .  A
N2060      N2062   1.304       .  A
N2060     Mn2067   2.189       .  S
N2061      C2070   1.361       .  A
N2062      N2063   1.307       .  A
N2062     Mn2066   2.145       .  S
N2063      C2070   1.342       .  A
N2064      N2065   1.320       .  A
N2064     Mn2067   2.172       .  S
N2065      C2069   1.353       .  A
Mn2066    Cl2068   2.513       .  S
Mn2067    Cl2068   2.534       .  S
C2069      C2165   1.462       .  S
C2070      C2875   1.478       .  S
N2071      N2072   1.338       .  A
N2071      N2077   1.320       .  A
N2071     Mn2100   2.311       .  S
N2072      C2079   1.375       .  A
N2073      N2075   1.321       .  A
N2073      N2074   1.310       .  A
N2073     Mn2089   2.141       .  S
N2074      C2080   1.334       .  A
N2075      N2076   1.337       .  A
N2075     Mn2100   2.317       .  S
N2076      C2080   1.373       .  A
N2077      N2078   1.308       .  A
N2077     Mn2089   2.148       .  S
N2078      C2079   1.337       .  A
C2079      C3712   1.504       .  S
C2080      C3072   1.485       .  S
N2081      N2087   1.308       .  A
N2081      N2082   1.310       .  A
N2081     Mn2111   2.159       .  S
N2082      C2090   1.345       .  A
N2083      N2084   1.321       .  A
N2083      N2085   1.309       .  A
N2083     Mn2089   2.180       .  S
N2084      C2091   1.353       .  A
N2085      N2086   1.311       .  A
N2085     Mn2111   2.155       .  S
N2086      C2091   1.347       .  A
N2087      N2088   1.325       .  A
N2087     Mn2089   2.199       .  S
N2088      C2090   1.360       .  A
Mn2089    Cl2113   2.527       .  S
C2090      C2982   1.480       .  S
C2091      C2632   1.454       .  S
N2092      N2093   1.339       .  A
N2092      N2098   1.319       .  A
N2092     Mn2100   2.316       .  S
N2093      C2101   1.375       .  A
N2094      N2096   1.318       .  A
N2094      N2095   1.307       .  A
N2094     Mn2112   2.130       .  S
N2095      C2102   1.332       .  A
N2096      N2097   1.340       .  A
N2096     Mn2100   2.322       .  S
N2097      C2102   1.378       .  A
N2098      N2099   1.308       .  A
N2098     Mn2112   2.133       .  S
N2099      C2101   1.333       .  A
Mn2100    Cl2113   2.562       .  S
C2101      C3035   1.488       .  S
C2102      C3635   1.503       .  S
N2103      N2104   1.311       .  A
N2103      N2109   1.307       .  A
N2103     Mn2111   2.158       .  S
N2104      C2114   1.349       .  A
N2105      N2106   1.323       .  A
N2105      N2107   1.307       .  A
N2105     Mn2112   2.180       .  S
N2106      C2115   1.355       .  A
N2107      N2108   1.311       .  A
N2107     Mn2111   2.166       .  S
N2108      C2115   1.351       .  A
N2109      N2110   1.320       .  A
N2109     Mn2112   2.170       .  S
N2110      C2114   1.352       .  A
Mn2111    Cl2113   2.537       .  S
Mn2112    Cl2113   2.528       .  S
C2114      C2715   1.456       .  S
C2115      C2175   1.478       .  S
N2116      N2117   1.314       .  A
N2116      N2122   1.308       .  A
N2116     Mn2145   2.166       .  S
N2117      C2124   1.349       .  A
N2118      N2120   1.308       .  A
N2118      N2119   1.319       .  A
N2118     Mn2134   2.185       .  S
N2119      C2125   1.354       .  A
N2120      N2121   1.315       .  A
N2120     Mn2145   2.162       .  S
N2121      C2125   1.350       .  A
N2122      N2123   1.322       .  A
N2122     Mn2134   2.193       .  S
N2123      C2124   1.358       .  A
C2124      C2332   1.478   1_565  S
C2125      C2935   1.466       .  S
N2126      N2132   1.317       .  A
N2126      N2127   1.340       .  A
N2126     Mn2156   2.315       .  S
N2127      C2135   1.378       .  A
N2128      N2129   1.310       .  A
N2128      N2130   1.320       .  A
N2128     Mn2134   2.142       .  S
N2129      C2136   1.335       .  A
N2130      N2131   1.338       .  A
N2130     Mn2156   2.315       .  S
N2131      C2136   1.374       .  A
N2132      N2133   1.307       .  A
N2132     Mn2134   2.137       .  S
N2133      C2135   1.332       .  A
Mn2134    Cl2158   2.520       .  S
C2135      C3205   1.506       .  S
C2136      C3782   1.489       .  S
N2137      N2138   1.309       .  A
N2137      N2143   1.308       .  A
N2137     Mn2145   2.161       .  S
N2138      C2146   1.349       .  A
N2139      N2141   1.310       .  A
N2139      N2140   1.325       .  A
N2139     Mn2157   2.193       .  S
N2140      C2147   1.357       .  A
N2141      N2142   1.309       .  A
N2141     Mn2145   2.161       .  S
N2142      C2147   1.347       .  A
N2143      N2144   1.322       .  A
N2143     Mn2157   2.178       .  S
N2144      C2146   1.354       .  A
Mn2145    Cl2158   2.524       .  S
C2146      C2785   1.466   1_565  S
C2147      C2185   1.472   1_565  S
N2148      N2149   1.339       .  A
N2148      N2154   1.319       .  A
N2148     Mn2156   2.322       .  S
N2149      C2159   1.377       .  A
N2150      N2151   1.311       .  A
N2150      N2152   1.320       .  A
N2150     Mn2157   2.150       .  S
N2151      C2160   1.336       .  A
N2152      N2153   1.338       .  A
N2152     Mn2156   2.307       .  S
N2153      C2160   1.373       .  A
N2154      N2155   1.309       .  A
N2154     Mn2157   2.139       .  S
N2155      C2159   1.334       .  A
Mn2156    Cl2158   2.581       .  S
Mn2157    Cl2158   2.533       .  S
C2159      C3752   1.504       .  S
C2160      C3355   1.488       .  S
C2161      C2162   1.404       .  A
C2161      C2166   1.404   1_455  A
C2161      H2168   1.083   1_554  S
C2162      C2163   1.413       .  A
C2163      C2164   1.379       .  A
C2163     Br2170   1.929       .  S
C2164      C2165   1.396   1_455  A
C2164      H2169   1.084       .  S
C2165      C2166   1.409       .  A
C2166     Br2167   1.918       .  S
C2171      C2172   1.408   1_565  A
C2171      C2176   1.404   1_465  A
C2171      H2178   1.083       .  S
C2172      C2173   1.415       .  A
C2173      C2174   1.383       .  A
C2173     Br2180   1.924       .  S
C2174      C2175   1.398   1_455  A
C2174      H2179   1.081       .  S
C2175      C2176   1.412       .  A
C2176     Br2177   1.919       .  S
C2181      C2182   1.408       .  A
C2181      C2186   1.406       .  A
C2181      H2188   1.083   1_554  S
C2182      C2183   1.414       .  A
C2183      C2184   1.381       .  A
C2183     Br2190   1.928       .  S
C2184      C2185   1.400       .  A
C2184      H2189   1.083       .  S
C2185      C2186   1.409       .  A
C2186     Br2187   1.918   1_545  S
C2191      C2192   1.422       .  A
C2191      C2196   1.407       .  A
C2191      H2198   1.083       .  S
C2192      C2193   1.401       .  A
C2193      C2194   1.405       .  A
C2193     Br2200   1.917       .  S
C2194      C2195   1.423       .  A
C2194      H2199   1.082       .  S
C2195      C2196   1.403       .  A
C2196     Br2197   1.917       .  S
C2201      C2202   1.398       .  A
C2201      C2206   1.377       .  A
C2201      H2208   1.084       .  S
C2202      C2203   1.406       .  A
C2203      C2204   1.403       .  A
C2203     Br2210   1.918       .  S
C2204      C2205   1.406       .  A
C2204      H2209   1.082       .  S
C2205      C2206   1.409       .  A
C2206     Br2207   1.928       .  S
C2211      C2212   1.399       .  A
C2211      C2216   1.404       .  A
C2211      H2218   1.084       .  S
C2212      C2213   1.419       .  A
C2213      C2214   1.414       .  A
C2213     Br2220   1.918       .  S
C2214      C2215   1.404       .  A
C2214      H2219   1.083       .  S
C2215      C2216   1.417       .  A
C2216     Br2217   1.919       .  S
C2221      C2222   1.399       .  A
C2221      C2226   1.392       .  A
C2221      H2228   1.084       .  S
C2222      C2223   1.406       .  A
C2223      C2224   1.396       .  A
C2223     Br2230   1.919       .  S
C2224      C2225   1.402       .  A
C2224      H2229   1.083       .  S
C2225      C2226   1.411       .  A
C2226     Br2227   1.923       .  S
C2231      C2232   1.404       .  A
C2231      C2236   1.413       .  A
C2231      H2238   1.083       .  S
C2232      C2233   1.418       .  A
C2233      C2234   1.403       .  A
C2233     Br2240   1.920       .  S
C2234      C2235   1.399       .  A
C2234      H2239   1.084       .  S
C2235      C2236   1.418       .  A
C2236     Br2237   1.918       .  S
C2241      C2242   1.404       .  A
C2241      C2246   1.390       .  A
C2241      H2248   1.083       .  S
C2242      C2243   1.412       .  A
C2243      C2244   1.402       .  A
C2243     Br2250   1.920       .  S
C2244      C2245   1.407       .  A
C2244      H2249   1.083       .  S
C2245      C2246   1.413       .  A
C2246     Br2247   1.926       .  S
C2251      C2252   1.398       .  A
C2251      C2256   1.383       .  A
C2251      H2258   1.084       .  S
C2252      C2253   1.403       .  A
C2253      C2254   1.398       .  A
C2253     Br2260   1.913       .  S
C2254      C2255   1.402       .  A
C2254      H2259   1.081       .  S
C2255      C2256   1.409       .  A
C2256     Br2257   1.926       .  S
C2261      C2262   1.402       .  A
C2261      C2266   1.391       .  A
C2261      H2268   1.080       .  S
C2262      C2263   1.411       .  A
C2263      C2264   1.398       .  A
C2263     Br2270   1.920       .  S
C2264      C2265   1.406       .  A
C2264      H2269   1.083       .  S
C2265      C2266   1.406       .  A
C2266     Br2267   1.920       .  S
C2271      C2272   1.407       .  A
C2271      C2276   1.405       .  A
C2271      H2278   1.083       .  S
C2272      C2273   1.416       .  A
C2273      C2274   1.377       .  A
C2273     Br2280   1.932       .  S
C2274      C2275   1.399       .  A
C2274      H2279   1.083       .  S
C2275      C2276   1.411       .  A
C2276     Br2277   1.919       .  S
C2281      C2282   1.397       .  A
C2281      C2286   1.383       .  A
C2281      H2288   1.084       .  S
C2282      C2283   1.406       .  A
C2283      C2284   1.400       .  A
C2283     Br2290   1.918       .  S
C2284      C2285   1.403       .  A
C2284      H2289   1.083       .  S
C2285      C2286   1.408       .  A
C2286     Br2287   1.925       .  S
C2291      C2292   1.404       .  A
C2291      C2296   1.396       .  A
C2291      H2298   1.083       .  S
C2292      C2293   1.409       .  A
C2293      C2294   1.391       .  A
C2293     Br2300   1.924       .  S
C2294      C2295   1.404       .  A
C2294      H2299   1.084       .  S
C2295      C2296   1.413       .  A
C2296     Br2297   1.921       .  S
C2301      C2302   1.403       .  A
C2301      C2306   1.400       .  A
C2301      H2308   1.083       .  S
C2302      C2303   1.410       .  A
C2303      C2304   1.376       .  A
C2303     Br2310   1.928       .  S
C2304      C2305   1.396       .  A
C2304      H2309   1.084       .  S
C2305      C2306   1.407       .  A
C2306     Br2307   1.918       .  S
C2311      C2312   1.402       .  A
C2311      C2316   1.398       .  A
C2311      H2318   1.084       .  S
C2312      C2313   1.410       .  A
C2313      C2314   1.394       .  A
C2313     Br2320   1.922       .  S
C2314      C2315   1.400       .  A
C2314      H2319   1.084       .  S
C2315      C2316   1.406       .  A
C2316     Br2317   1.919       .  S
C2321      C2322   1.420       .  A
C2321      C2326   1.407       .  A
C2321      H2328   1.083       .  S
C2322      C2323   1.401       .  A
C2323      C2324   1.403       .  A
C2323     Br2330   1.918       .  S
C2324      C2325   1.422       .  A
C2324      H2329   1.082       .  S
C2325      C2326   1.404       .  A
C2326     Br2327   1.917       .  S
C2331      C2332   1.404       .  A
C2331      C2336   1.400       .  A
C2331      H2338   1.083   1_545  S
C2332      C2333   1.413       .  A
C2333      C2334   1.393       .  A
C2333     Br2340   1.925       .  S
C2334      C2335   1.403       .  A
C2334      H2339   1.084       .  S
C2335      C2336   1.416       .  A
C2336     Br2337   1.922       .  S
C2341      C2342   1.401       .  A
C2341      C2346   1.375       .  A
C2341      H2348   1.083       .  S
C2342      C2343   1.408       .  A
C2343      C2344   1.403       .  A
C2343     Br2350   1.919       .  S
C2344      C2345   1.408       .  A
C2344      H2349   1.081   1_554  S
C2345      C2346   1.412       .  A
C2346     Br2347   1.932       .  S
C2351      C2352   1.405       .  A
C2351      C2356   1.414       .  A
C2351      H2358   1.083       .  S
C2352      C2353   1.417       .  A
C2353      C2354   1.406       .  A
C2353     Br2360   1.921       .  S
C2354      C2355   1.402       .  A
C2354      H2359   1.084       .  S
C2355      C2356   1.416       .  A
C2356     Br2357   1.917       .  S
C2361      C2362   1.406       .  A
C2361      C2366   1.404       .  A
C2361      H2368   1.084   1_554  S
C2362      C2363   1.413       .  A
C2363      C2364   1.380       .  A
C2363     Br2370   1.928       .  S
C2364      C2365   1.400       .  A
C2364      H2369   1.084       .  S
C2365      C2366   1.408       .  A
C2366     Br2367   1.915       .  S
C2371      C2372   1.421       .  A
C2371      C2376   1.408       .  A
C2371      H2378   1.083       .  S
C2372      C2373   1.403       .  A
C2373      C2374   1.404       .  A
C2373     Br2380   1.919       .  S
C2374      C2375   1.422       .  A
C2374      H2379   1.082       .  S
C2375      C2376   1.405       .  A
C2376     Br2377   1.917       .  S
C2381      C2382   1.405       .  A
C2381      C2386   1.402       .  A
C2381      H2388   1.084       .  S
C2382      C2383   1.412       .  A
C2383      C2384   1.411       .  A
C2383     Br2390   1.917       .  S
C2384      C2385   1.407       .  A
C2384      H2389   1.083       .  S
C2385      C2386   1.410       .  A
C2386     Br2387   1.920       .  S
C2391      C2392   1.398       .  A
C2391      C2396   1.382       .  A
C2391      H2398   1.084       .  S
C2392      C2393   1.406       .  A
C2393      C2394   1.402       .  A
C2393     Br2400   1.916       .  S
C2394      C2395   1.404       .  A
C2394      H2399   1.083   1_545  S
C2395      C2396   1.409       .  A
C2396     Br2397   1.926       .  S
C2401      C2402   1.399       .  A
C2401      C2406   1.379       .  A
C2401      H2408   1.083       .  S
C2402      C2403   1.413       .  A
C2403      C2404   1.402       .  A
C2403     Br2410   1.919       .  S
C2404      C2405   1.406       .  A
C2404      H2409   1.083       .  S
C2405      C2406   1.418       .  A
C2406     Br2407   1.932       .  S
C2411      C2412   1.397       .  A
C2411      C2416   1.377       .  A
C2411      H2418   1.084       .  S
C2412      C2413   1.411       .  A
C2413      C2414   1.407       .  A
C2413     Br2420   1.919       .  S
C2414      C2415   1.406       .  A
C2414      H2419   1.083       .  S
C2415      C2416   1.414       .  A
C2416     Br2417   1.930       .  S
C2421      C2422   1.420       .  A
C2421      C2426   1.398       .  A
C2421      H2428   1.083       .  S
C2422      C2423   1.404       .  A
C2423      C2424   1.411       .  A
C2423     Br2430   1.915       .  S
C2424      C2425   1.418       .  A
C2424      H2429   1.084       .  S
C2425      C2426   1.398       .  A
C2426     Br2427   1.920       .  S
C2431      C2432   1.406       .  A
C2431      C2436   1.406       .  A
C2431      H2438   1.083       .  S
C2432      C2433   1.412       .  A
C2433      C2434   1.378       .  A
C2433     Br2440   1.929       .  S
C2434      C2435   1.398       .  A
C2434      H2439   1.084       .  S
C2435      C2436   1.410       .  A
C2436     Br2437   1.918       .  S
C2441      C2442   1.407       .  A
C2441      C2446   1.416       .  A
C2441      H2448   1.083       .  S
C2442      C2443   1.416       .  A
C2443      C2444   1.405       .  A
C2443     Br2450   1.921       .  S
C2444      C2445   1.402       .  A
C2444      H2449   1.084       .  S
C2445      C2446   1.417       .  A
C2446     Br2447   1.917       .  S
C2451      C2452   1.404       .  A
C2451      C2456   1.402       .  A
C2451      H2458   1.083       .  S
C2452      C2453   1.407       .  A
C2453      C2454   1.378       .  A
C2453     Br2460   1.927       .  S
C2454      C2455   1.398       .  A
C2454      H2459   1.085       .  S
C2455      C2456   1.405       .  A
C2456     Br2457   1.916       .  S
C2461      C2462   1.400       .  A
C2461      C2466   1.394       .  A
C2461      H2468   1.084       .  S
C2462      C2463   1.406       .  A
C2463      C2464   1.397       .  A
C2463     Br2470   1.919       .  S
C2464      C2465   1.402       .  A
C2464      H2469   1.083       .  S
C2465      C2466   1.412       .  A
C2466     Br2467   1.922       .  S
C2471      C2472   1.407       .  A
C2471      C2476   1.412       .  A
C2471      H2478   1.083       .  S
C2472      C2473   1.412       .  A
C2473      C2474   1.403       .  A
C2473     Br2480   1.921       .  S
C2474      C2475   1.403       .  A
C2474      H2479   1.084       .  S
C2475      C2476   1.414       .  A
C2476     Br2477   1.917       .  S
C2481      C2482   1.397       .  A
C2481      C2486   1.389       .  A
C2481      H2488   1.084       .  S
C2482      C2483   1.405       .  A
C2483      C2484   1.400       .  A
C2483     Br2490   1.918       .  S
C2484      C2485   1.402       .  A
C2484      H2489   1.083       .  S
C2485      C2486   1.407       .  A
C2486     Br2487   1.923       .  S
C2491      C2492   1.402       .  A
C2491      C2496   1.404       .  A
C2491      H2498   1.084       .  S
C2492      C2493   1.415       .  A
C2493      C2494   1.412       .  A
C2493     Br2500   1.917       .  S
C2494      C2495   1.405       .  A
C2494      H2499   1.083       .  S
C2495      C2496   1.414       .  A
C2496     Br2497   1.920       .  S
C2501      C2502   1.405       .  A
C2501      C2506   1.403       .  A
C2501      H2508   1.084       .  S
C2502      C2503   1.413       .  A
C2503      C2504   1.412       .  A
C2503     Br2510   1.917       .  S
C2504      C2505   1.407       .  A
C2504      H2509   1.083       .  S
C2505      C2506   1.409       .  A
C2506     Br2507   1.919       .  S
C2511      C2512   1.401       .  A
C2511      C2516   1.393       .  A
C2511      H2518   1.084       .  S
C2512      C2513   1.407       .  A
C2513      C2514   1.394       .  A
C2513     Br2520   1.919       .  S
C2514      C2515   1.400       .  A
C2514      H2519   1.082       .  S
C2515      C2516   1.411       .  A
C2516     Br2517   1.922       .  S
C2521      C2522   1.400       .  A
C2521      C2526   1.384       .  A
C2521      H2528   1.083       .  S
C2522      C2523   1.411       .  A
C2523      C2524   1.401       .  A
C2523     Br2530   1.918       .  S
C2524      C2525   1.406       .  A
C2524      H2529   1.083       .  S
C2525      C2526   1.415       .  A
C2526     Br2527   1.924       .  S
C2531      C2532   1.401       .  A
C2531      C2536   1.398       .  A
C2531      H2538   1.083       .  S
C2532      C2533   1.406       .  A
C2533      C2534   1.389       .  A
C2533     Br2540   1.922       .  S
C2534      C2535   1.398       .  A
C2534      H2539   1.084       .  S
C2535      C2536   1.405       .  A
C2536     Br2537   1.917       .  S
C2541      C2542   1.407       .  A
C2541      C2546   1.404       .  A
C2541      H2548   1.083       .  S
C2542      C2543   1.416       .  A
C2543      C2544   1.379       .  A
C2543     Br2550   1.932       .  S
C2544      C2545   1.401       .  A
C2544      H2549   1.083       .  S
C2545      C2546   1.411       .  A
C2546     Br2547   1.918       .  S
C2551      C2552   1.402       .  A
C2551      C2556   1.400       .  A
C2551      H2558   1.084       .  S
C2552      C2553   1.404       .  A
C2553      C2554   1.383       .  A
C2553     Br2560   1.924       .  S
C2554      C2555   1.398       .  A
C2554      H2559   1.085       .  S
C2555      C2556   1.405       .  A
C2556     Br2557   1.914       .  S
C2561      C2562   1.395       .  A
C2561      C2566   1.407       .  A
C2561      H2568   1.083       .  S
C2562      C2563   1.434       .  A
C2563      C2564   1.406       .  A
C2563     Br2570   1.926       .  S
C2564      C2565   1.394       .  A
C2564      H2569   1.083       .  S
C2565      C2566   1.431       .  A
C2566     Br2567   1.925       .  S
C2571      C2572   1.393       .  A
C2571      C2576   1.403       .  A
C2571      H2578   1.083       .  S
C2572      C2573   1.431       .  A
C2573      C2574   1.403       .  A
C2573     Br2580   1.925       .  S
C2574      C2575   1.393       .  A
C2574      H2579   1.083       .  S
C2575      C2576   1.431       .  A
C2576     Br2577   1.926       .  S
C2581      C2582   1.396       .  A
C2581      C2586   1.380       .  A
C2581      H2588   1.085       .  S
C2582      C2583   1.406       .  A
C2583      C2584   1.402       .  A
C2583     Br2590   1.917       .  S
C2584      C2585   1.403       .  A
C2584      H2589   1.083   1_554  S
C2585      C2586   1.406       .  A
C2586     Br2587   1.923       .  S
C2591      C2592   1.397       .  A
C2591      C2596   1.380       .  A
C2591      H2598   1.084       .  S
C2592      C2593   1.410       .  A
C2593      C2594   1.404   1_455  A
C2593     Br2600   1.918   1_455  S
C2594      C2595   1.404       .  A
C2594      H2599   1.083       .  S
C2595      C2596   1.412   1_655  A
C2596     Br2597   1.928       .  S
C2601      C2602   1.406       .  A
C2601      C2606   1.415       .  A
C2601      H2608   1.083       .  S
C2602      C2603   1.416       .  A
C2603      C2604   1.406       .  A
C2603     Br2610   1.920       .  S
C2604      C2605   1.402       .  A
C2604      H2609   1.083       .  S
C2605      C2606   1.417       .  A
C2606     Br2607   1.917       .  S
C2611      C2612   1.397       .  A
C2611      C2616   1.379       .  A
C2611      H2618   1.084       .  S
C2612      C2613   1.406       .  A
C2613      C2614   1.404       .  A
C2613     Br2620   1.917       .  S
C2614      C2615   1.406       .  A
C2614      H2619   1.083       .  S
C2615      C2616   1.410       .  A
C2616     Br2617   1.927       .  S
C2621      C2622   1.389       .  A
C2621      C2626   1.401       .  A
C2621      H2628   1.084       .  S
C2622      C2623   1.426       .  A
C2623      C2624   1.407       .  A
C2623     Br2630   1.923       .  S
C2624      C2625   1.398       .  A
C2624      H2629   1.083       .  S
C2625      C2626   1.440       .  A
C2626     Br2627   1.929       .  S
C2631      C2632   1.398   1_455  A
C2631      C2636   1.382       .  A
C2631      H2638   1.084       .  S
C2632      C2633   1.404       .  A
C2633      C2634   1.400   1_655  A
C2633     Br2640   1.916       .  S
C2634      C2635   1.404       .  A
C2634      H2639   1.083       .  S
C2635      C2636   1.407       .  A
C2636     Br2637   1.925       .  S
C2641      C2642   1.414       .  A
C2641      C2646   1.414       .  A
C2641      H2648   1.083       .  S
C2642      C2643   1.404       .  A
C2643      C2644   1.402       .  A
C2643     Br2650   1.912       .  S
C2644      C2645   1.412       .  A
C2644      H2649   1.084       .  S
C2645      C2646   1.409       .  A
C2646     Br2647   1.916       .  S
C2651      C2652   1.403       .  A
C2651      C2656   1.393       .  A
C2651      H2658   1.084       .  S
C2652      C2653   1.414       .  A
C2653      C2654   1.401       .  A
C2653     Br2660   1.920       .  S
C2654      C2655   1.405       .  A
C2654      H2659   1.083       .  S
C2655      C2656   1.412       .  A
C2656     Br2657   1.924       .  S
C2661      C2662   1.413       .  A
C2661      C2666   1.413       .  A
C2661      H2668   1.084       .  S
C2662      C2663   1.404       .  A
C2663      C2664   1.400       .  A
C2663     Br2670   1.913       .  S
C2664      C2665   1.408       .  A
C2664      H2669   1.084       .  S
C2665      C2666   1.408       .  A
C2666     Br2667   1.916       .  S
C2671      C2672   1.403       .  A
C2671      C2676   1.397       .  A
C2671      H2678   1.083   1_554  S
C2672      C2673   1.408       .  A
C2673      C2674   1.394       .  A
C2673     Br2680   1.921       .  S
C2674      C2675   1.402       .  A
C2674      H2679   1.084       .  S
C2675      C2676   1.412       .  A
C2676     Br2677   1.921       .  S
C2681      C2682   1.399       .  A
C2681      C2686   1.380       .  A
C2681      H2688   1.084       .  S
C2682      C2683   1.406       .  A
C2683      C2684   1.401       .  A
C2683     Br2690   1.918       .  S
C2684      C2685   1.405       .  A
C2684      H2689   1.083       .  S
C2685      C2686   1.411       .  A
C2686     Br2687   1.928       .  S
C2691      C2692   1.401       .  A
C2691      C2696   1.394       .  A
C2691      H2698   1.084       .  S
C2692      C2693   1.411       .  A
C2693      C2694   1.392       .  A
C2693     Br2700   1.923   1_545  S
C2694      C2695   1.400       .  A
C2694      H2699   1.084       .  S
C2695      C2696   1.406       .  A
C2696     Br2697   1.920       .  S
C2701      C2702   1.408       .  A
C2701      C2706   1.406       .  A
C2701      H2708   1.083       .  S
C2702      C2703   1.417       .  A
C2703      C2704   1.376       .  A
C2703     Br2710   1.934       .  S
C2704      C2705   1.399       .  A
C2704      H2709   1.083       .  S
C2705      C2706   1.410       .  A
C2706     Br2707   1.919       .  S
C2711      C2712   1.405       .  A
C2711      C2716   1.403   1_455  A
C2711      H2718   1.083       .  S
C2712      C2713   1.409       .  A
C2713      C2714   1.378       .  A
C2713     Br2720   1.927       .  S
C2714      C2715   1.396   1_455  A
C2714      H2719   1.084       .  S
C2715      C2716   1.407       .  A
C2716     Br2717   1.918       .  S
C2721      C2722   1.403       .  A
C2721      C2726   1.401       .  A
C2721      H2728   1.083       .  S
C2722      C2723   1.405       .  A
C2723      C2724   1.381       .  A
C2723     Br2730   1.922       .  S
C2724      C2725   1.396       .  A
C2724      H2729   1.085       .  S
C2725      C2726   1.404       .  A
C2726     Br2727   1.916       .  S
C2731      C2732   1.405       .  A
C2731      C2736   1.403       .  A
C2731      H2738   1.083       .  S
C2732      C2733   1.411       .  A
C2733      C2734   1.379       .  A
C2733     Br2740   1.928       .  S
C2734      C2735   1.399       .  A
C2734      H2739   1.084       .  S
C2735      C2736   1.410       .  A
C2736     Br2737   1.919       .  S
C2741      C2742   1.408       .  A
C2741      C2746   1.404       .  A
C2741      H2748   1.083       .  S
C2742      C2743   1.411       .  A
C2743      C2744   1.375       .  A
C2743     Br2750   1.929       .  S
C2744      C2745   1.399       .  A
C2744      H2749   1.084       .  S
C2745      C2746   1.406       .  A
C2746     Br2747   1.917       .  S
C2751      C2752   1.403       .  A
C2751      C2756   1.386       .  A
C2751      H2758   1.083       .  S
C2752      C2753   1.412       .  A
C2753      C2754   1.404       .  A
C2753     Br2760   1.918       .  S
C2754      C2755   1.408       .  A
C2754      H2759   1.083       .  S
C2755      C2756   1.416       .  A
C2756     Br2757   1.929       .  S
C2761      C2762   1.407       .  A
C2761      C2766   1.403       .  A
C2761      H2768   1.083       .  S
C2762      C2763   1.411       .  A
C2763      C2764   1.380       .  A
C2763     Br2770   1.928       .  S
C2764      C2765   1.400       .  A
C2764      H2769   1.084       .  S
C2765      C2766   1.407       .  A
C2766     Br2767   1.918       .  S
C2771      C2772   1.403       .  A
C2771      C2776   1.401       .  A
C2771      H2778   1.082   1_554  S
C2772      C2773   1.407       .  A
C2773      C2774   1.382       .  A
C2773     Br2780   1.924       .  S
C2774      C2775   1.398       .  A
C2774      H2779   1.084       .  S
C2775      C2776   1.406       .  A
C2776     Br2777   1.918       .  S
C2781      C2782   1.406       .  A
C2781      C2786   1.405   1_545  A
C2781      H2788   1.083       .  S
C2782      C2783   1.412       .  A
C2783      C2784   1.375       .  A
C2783     Br2790   1.931       .  S
C2784      C2785   1.398       .  A
C2784      H2789   1.083       .  S
C2785      C2786   1.409   1_545  A
C2786     Br2787   1.917       .  S
C2791      C2792   1.403       .  A
C2791      C2796   1.411       .  A
C2791      H2798   1.083       .  S
C2792      C2793   1.418       .  A
C2793      C2794   1.400       .  A
C2793     Br2800   1.919       .  S
C2794      C2795   1.396       .  A
C2794      H2799   1.084       .  S
C2795      C2796   1.418       .  A
C2796     Br2797   1.919       .  S
C2801      C2802   1.423       .  A
C2801      C2806   1.403       .  A
C2801      H2808   1.082       .  S
C2802      C2803   1.406       .  A
C2803      C2804   1.408       .  A
C2803     Br2810   1.916       .  S
C2804      C2805   1.419       .  A
C2804      H2809   1.083       .  S
C2805      C2806   1.400       .  A
C2806     Br2807   1.919       .  S
C2811      C2812   1.397       .  A
C2811      C2816   1.376       .  A
C2811      H2818   1.083       .  S
C2812      C2813   1.413       .  A
C2813      C2814   1.404       .  A
C2813     Br2820   1.919       .  S
C2814      C2815   1.406       .  A
C2814      H2819   1.083       .  S
C2815      C2816   1.420       .  A
C2816     Br2817   1.935       .  S
C2821      C2822   1.404       .  A
C2821      C2826   1.392       .  A
C2821      H2828   1.084       .  S
C2822      C2823   1.413       .  A
C2823      C2824   1.400       .  A
C2823     Br2830   1.920       .  S
C2824      C2825   1.405       .  A
C2824      H2829   1.083       .  S
C2825      C2826   1.410       .  A
C2826     Br2827   1.923       .  S
C2831      C2832   1.401   1_455  A
C2831      C2836   1.377       .  A
C2831      H2838   1.082       .  S
C2832      C2833   1.410       .  A
C2833      C2834   1.406   1_655  A
C2833     Br2840   1.919       .  S
C2834      C2835   1.409       .  A
C2834      H2839   1.083       .  S
C2835      C2836   1.414       .  A
C2836     Br2837   1.932       .  S
C2841      C2842   1.400       .  A
C2841      C2846   1.392       .  A
C2841      H2848   1.084       .  S
C2842      C2843   1.407       .  A
C2843      C2844   1.395       .  A
C2843     Br2850   1.920       .  S
C2844      C2845   1.401       .  A
C2844      H2849   1.084       .  S
C2845      C2846   1.410       .  A
C2846     Br2847   1.923       .  S
C2851      C2852   1.401       .  A
C2851      C2856   1.394       .  A
C2851      H2858   1.084   1_554  S
C2852      C2853   1.407       .  A
C2853      C2854   1.392       .  A
C2853     Br2860   1.921       .  S
C2854      C2855   1.402       .  A
C2854      H2859   1.084       .  S
C2855      C2856   1.413       .  A
C2856     Br2857   1.923       .  S
C2861      C2862   1.402       .  A
C2861      C2866   1.387       .  A
C2861      H2868   1.083       .  S
C2862      C2863   1.412       .  A
C2863      C2864   1.401       .  A
C2863     Br2870   1.920       .  S
C2864      C2865   1.406       .  A
C2864      H2869   1.083       .  S
C2865      C2866   1.417       .  A
C2866     Br2867   1.929       .  S
C2871      C2872   1.399       .  A
C2871      C2876   1.381       .  A
C2871      H2878   1.083       .  S
C2872      C2873   1.412       .  A
C2873      C2874   1.405   1_455  A
C2873     Br2880   1.919   1_455  S
C2874      C2875   1.408       .  A
C2874      H2879   1.083       .  S
C2875      C2876   1.418   1_655  A
C2876     Br2877   1.931       .  S
C2881      C2882   1.405       .  A
C2881      C2886   1.412       .  A
C2881      H2888   1.083       .  S
C2882      C2883   1.415       .  A
C2883      C2884   1.404       .  A
C2883     Br2890   1.921       .  S
C2884      C2885   1.402       .  A
C2884      H2889   1.084       .  S
C2885      C2886   1.415       .  A
C2886     Br2887   1.917       .  S
C2891      C2892   1.408       .  A
C2891      C2896   1.403       .  A
C2891      H2898   1.084       .  S
C2892      C2893   1.411       .  A
C2893      C2894   1.413       .  A
C2893     Br2900   1.916       .  S
C2894      C2895   1.410       .  A
C2894      H2899   1.083       .  S
C2895      C2896   1.408       .  A
C2896     Br2897   1.919       .  S
C2901      C2902   1.398       .  A
C2901      C2906   1.389       .  A
C2901      H2908   1.084       .  S
C2902      C2903   1.405       .  A
C2903      C2904   1.400       .  A
C2903     Br2910   1.917       .  S
C2904      C2905   1.402       .  A
C2904      H2909   1.083       .  S
C2905      C2906   1.405       .  A
C2906     Br2907   1.922       .  S
C2911      C2912   1.404       .  A
C2911      C2916   1.384       .  A
C2911      H2918   1.083       .  S
C2912      C2913   1.410       .  A
C2913      C2914   1.403       .  A
C2913     Br2920   1.919       .  S
C2914      C2915   1.409       .  A
C2914      H2919   1.083       .  S
C2915      C2916   1.415       .  A
C2916     Br2917   1.929       .  S
C2921      C2922   1.409       .  A
C2921      C2926   1.407       .  A
C2921      H2928   1.083       .  S
C2922      C2923   1.416       .  A
C2923      C2924   1.378       .  A
C2923     Br2930   1.933       .  S
C2924      C2925   1.401       .  A
C2924      H2929   1.083       .  S
C2925      C2926   1.411       .  A
C2926     Br2927   1.918       .  S
C2931      C2932   1.401       .  A
C2931      C2936   1.394       .  A
C2931      H2938   1.084       .  S
C2932      C2933   1.412       .  A
C2933      C2934   1.394       .  A
C2933     Br2940   1.922       .  S
C2934      C2935   1.401   1_545  A
C2934      H2939   1.084   1_545  S
C2935      C2936   1.409   1_565  A
C2936     Br2937   1.921       .  S
C2941      C2942   1.402       .  A
C2941      C2946   1.412       .  A
C2941      H2948   1.083       .  S
C2942      C2943   1.435       .  A
C2943      C2944   1.402       .  A
C2943     Br2950   1.922       .  S
C2944      C2945   1.392       .  A
C2944      H2949   1.084       .  S
C2945      C2946   1.427       .  A
C2946     Br2947   1.922       .  S
C2951      C2952   1.405       .  A
C2951      C2956   1.414       .  A
C2951      H2958   1.083       .  S
C2952      C2953   1.417       .  A
C2953      C2954   1.402       .  A
C2953     Br2960   1.921       .  S
C2954      C2955   1.399       .  A
C2954      H2959   1.084       .  S
C2955      C2956   1.418       .  A
C2956     Br2957   1.918       .  S
C2961      C2962   1.402       .  A
C2961      C2966   1.395       .  A
C2961      H2968   1.083       .  S
C2962      C2963   1.410       .  A
C2963      C2964   1.394       .  A
C2963     Br2970   1.922       .  S
C2964      C2965   1.403       .  A
C2964      H2969   1.084       .  S
C2965      C2966   1.413       .  A
C2966     Br2967   1.919       .  S
C2971      C2972   1.410       .  A
C2971      C2976   1.407       .  A
C2971      H2978   1.083       .  S
C2972      C2973   1.416       .  A
C2973      C2974   1.378       .  A
C2973     Br2980   1.932       .  S
C2974      C2975   1.401       .  A
C2974      H2979   1.083       .  S
C2975      C2976   1.411       .  A
C2976     Br2977   1.919       .  S
C2981      C2982   1.407       .  A
C2981      C2986   1.404   1_655  A
C2981      H2988   1.083       .  S
C2982      C2983   1.416   1_655  A
C2983      C2984   1.385       .  A
C2983     Br2990   1.924       .  S
C2984      C2985   1.400       .  A
C2984      H2989   1.084       .  S
C2985      C2986   1.414       .  A
C2986     Br2987   1.920       .  S
C2991      C2992   1.402       .  A
C2991      C2996   1.396       .  A
C2991      H2998   1.084       .  S
C2992      C2993   1.411       .  A
C2993      C2994   1.395       .  A
C2993     Br3000   1.921       .  S
C2994      C2995   1.401   1_545  A
C2994      H2999   1.084   1_545  S
C2995      C2996   1.404   1_565  A
C2996     Br2997   1.914       .  S
C3001      C3002   1.397       .  A
C3001      C3006   1.407       .  A
C3001      H3008   1.083       .  S
C3002      C3003   1.436       .  A
C3003      C3004   1.410       .  A
C3003     Br3010   1.925       .  S
C3004      C3005   1.396       .  A
C3004      H3009   1.083       .  S
C3005      C3006   1.432       .  A
C3006     Br3007   1.925       .  S
C3011      C3012   1.419       .  A
C3011      C3016   1.413       .  A
C3011      H3018   1.083       .  S
C3012      C3013   1.401       .  A
C3013      C3014   1.404       .  A
C3013     Br3020   1.919       .  S
C3014      C3015   1.422       .  A
C3014      H3019   1.083       .  S
C3015      C3016   1.407       .  A
C3016     Br3017   1.916       .  S
C3021      C3022   1.410       .  A
C3021      C3026   1.415   1_655  A
C3021      H3028   1.083       .  S
C3022      C3023   1.410       .  A
C3023      C3024   1.403   1_655  A
C3023     Br3030   1.920       .  S
C3024      C3025   1.406       .  A
C3024      H3029   1.084       .  S
C3025      C3026   1.413       .  A
C3026     Br3027   1.917       .  S
C3031      C3032   1.401       .  A
C3031      C3036   1.403   1_565  A
C3031      H3038   1.084       .  S
C3032      C3033   1.416       .  A
C3033      C3034   1.413   1_565  A
C3033     Br3040   1.918       .  S
C3034      C3035   1.404       .  A
C3034      H3039   1.083       .  S
C3035      C3036   1.415       .  A
C3036     Br3037   1.921       .  S
C3041      C3042   1.402       .  A
C3041      C3046   1.409       .  A
C3041      H3048   1.083       .  S
C3042      C3043   1.425       .  A
C3043      C3044   1.406       .  A
C3043     Br3050   1.921       .  S
C3044      C3045   1.397       .  A
C3044      H3049   1.084       .  S
C3045      C3046   1.420       .  A
C3046     Br3047   1.920       .  S
C3051      C3052   1.403       .  A
C3051      C3056   1.414       .  A
C3051      H3058   1.083       .  S
C3052      C3053   1.422       .  A
C3053      C3054   1.406       .  A
C3053     Br3060   1.920       .  S
C3054      C3055   1.398       .  A
C3054      H3059   1.083       .  S
C3055      C3056   1.420       .  A
C3056     Br3057   1.918       .  S
C3061      C3062   1.402       .  A
C3061      C3066   1.404   1_655  A
C3061      H3068   1.084       .  S
C3062      C3063   1.417       .  A
C3063      C3064   1.415   1_655  A
C3063     Br3070   1.917       .  S
C3064      C3065   1.406       .  A
C3064      H3069   1.083       .  S
C3065      C3066   1.416       .  A
C3066     Br3067   1.921       .  S
C3071      C3072   1.402       .  A
C3071      C3076   1.403       .  A
C3071      H3078   1.084       .  S
C3072      C3073   1.415       .  A
C3073      C3074   1.414       .  A
C3073     Br3080   1.917       .  S
C3074      C3075   1.406       .  A
C3074      H3079   1.083       .  S
C3075      C3076   1.414       .  A
C3076     Br3077   1.920       .  S
C3081      C3082   1.402       .  A
C3081      C3086   1.397   1_545  A
C3081      H3088   1.084       .  S
C3082      C3083   1.411       .  A
C3083      C3084   1.392   1_545  A
C3083     Br3090   1.923       .  S
C3084      C3085   1.399       .  A
C3084      H3089   1.084       .  S
C3085      C3086   1.405       .  A
C3086     Br3087   1.918       .  S
C3091      C3092   1.401       .  A
C3091      C3096   1.410       .  A
C3091      H3098   1.083       .  S
C3092      C3093   1.434       .  A
C3093      C3094   1.406       .  A
C3093     Br3100   1.922       .  S
C3094      C3095   1.394       .  A
C3094      H3099   1.084       .  S
C3095      C3096   1.425       .  A
C3096     Br3097   1.922       .  S
C3101      C3102   1.391       .  A
C3101      C3106   1.403       .  A
C3101      H3108   1.084       .  S
C3102      C3103   1.427       .  A
C3103      C3104   1.410       .  A
C3103     Br3110   1.922       .  S
C3104      C3105   1.400       .  A
C3104      H3109   1.083       .  S
C3105      C3106   1.436       .  A
C3106     Br3107   1.924       .  S
C3111      C3112   1.413       .  A
C3111      C3116   1.413   1_565  A
C3111      H3118   1.083       .  S
C3112      C3113   1.406       .  A
C3113      C3114   1.403   1_565  A
C3113     Br3120   1.919       .  S
C3114      C3115   1.411       .  A
C3114      H3119   1.084       .  S
C3115      C3116   1.409       .  A
C3116     Br3117   1.916       .  S
C3121      C3122   1.406       .  A
C3121      C3126   1.403   1_465  A
C3121      H3128   1.083   1_565  S
C3122      C3123   1.416   1_455  A
C3123      C3124   1.388       .  A
C3123     Br3130   1.928       .  S
C3124      C3125   1.401   1_565  A
C3124      H3129   1.084       .  S
C3125      C3126   1.412       .  A
C3126     Br3127   1.919   1_655  S
C3131      C3132   1.416       .  A
C3131      C3136   1.413       .  A
C3131      H3138   1.083       .  S
C3132      C3133   1.401       .  A
C3133      C3134   1.400       .  A
C3133     Br3140   1.919       .  S
C3134      C3135   1.416       .  A
C3134      H3139   1.084       .  S
C3135      C3136   1.407       .  A
C3136     Br3137   1.916       .  S
C3141      C3142   1.404       .  A
C3141      C3146   1.403   1_455  A
C3141      H3148   1.083       .  S
C3142      C3143   1.408   1_455  A
C3143      C3144   1.375       .  A
C3143     Br3150   1.928       .  S
C3144      C3145   1.397       .  A
C3144      H3149   1.084       .  S
C3145      C3146   1.408       .  A
C3146     Br3147   1.915   1_655  S
C3151      C3152   1.400       .  A
C3151      C3156   1.400       .  A
C3151      H3158   1.083       .  S
C3152      C3153   1.408       .  A
C3153      C3154   1.387       .  A
C3153     Br3160   1.924       .  S
C3154      C3155   1.396       .  A
C3154      H3159   1.084       .  S
C3155      C3156   1.407       .  A
C3156     Br3157   1.919       .  S
C3161      C3162   1.396       .  A
C3161      C3166   1.406       .  A
C3161      H3168   1.083       .  S
C3162      C3163   1.435       .  A
C3163      C3164   1.403       .  A
C3163     Br3170   1.927       .  S
C3164      C3165   1.392       .  A
C3164      H3169   1.083       .  S
C3165      C3166   1.427       .  A
C3166     Br3167   1.923       .  S
C3171      C3172   1.417       .  A
C3171      C3176   1.413       .  A
C3171      H3178   1.084       .  S
C3172      C3173   1.403       .  A
C3173      C3174   1.405       .  A
C3173     Br3180   1.918       .  S
C3174      C3175   1.417       .  A
C3174      H3179   1.084       .  S
C3175      C3176   1.407       .  A
C3176     Br3177   1.916       .  S
C3181      C3182   1.416       .  A
C3181      C3186   1.404   1_565  A
C3181      H3188   1.082       .  S
C3182      C3183   1.409       .  A
C3183      C3184   1.409   1_565  A
C3183     Br3190   1.917       .  S
C3184      C3185   1.414       .  A
C3184      H3189   1.083       .  S
C3185      C3186   1.403       .  A
C3186     Br3187   1.919       .  S
C3191      C3192   1.400       .  A
C3191      C3196   1.386       .  A
C3191      H3198   1.083       .  S
C3192      C3193   1.411       .  A
C3193      C3194   1.400       .  A
C3193     Br3200   1.916       .  S
C3194      C3195   1.404       .  A
C3194      H3199   1.083   1_565  S
C3195      C3196   1.415       .  A
C3196     Br3197   1.927       .  S
C3201      C3202   1.395       .  A
C3201      C3206   1.404       .  A
C3201      H3208   1.083       .  S
C3202      C3203   1.432       .  A
C3203      C3204   1.409       .  A
C3203     Br3210   1.924       .  S
C3204      C3205   1.398       .  A
C3204      H3209   1.083       .  S
C3205      C3206   1.432       .  A
C3206     Br3207   1.925       .  S
C3211      C3212   1.418       .  A
C3211      C3216   1.415       .  A
C3211      H3218   1.083       .  S
C3212      C3213   1.400       .  A
C3213      C3214   1.401       .  A
C3213     Br3220   1.919       .  S
C3214      C3215   1.419       .  A
C3214      H3219   1.084       .  S
C3215      C3216   1.406       .  A
C3216     Br3217   1.915       .  S
C3221      C3222   1.403       .  A
C3221      C3226   1.402       .  A
C3221      H3228   1.083       .  S
C3222      C3223   1.405       .  A
C3223      C3224   1.376       .  A
C3223     Br3230   1.926       .  S
C3224      C3225   1.395       .  A
C3224      H3229   1.085       .  S
C3225      C3226   1.405       .  A
C3226     Br3227   1.917       .  S
C3231      C3232   1.400       .  A
C3231      C3236   1.391       .  A
C3231      H3238   1.084       .  S
C3232      C3233   1.404       .  A
C3233      C3234   1.400       .  A
C3233     Br3240   1.916       .  S
C3234      C3235   1.402       .  A
C3234      H3239   1.083       .  S
C3235      C3236   1.403       .  A
C3236     Br3237   1.921       .  S
C3241      C3242   1.393       .  A
C3241      C3246   1.403       .  A
C3241      H3248   1.083       .  S
C3242      C3243   1.427       .  A
C3243      C3244   1.406       .  A
C3243     Br3250   1.923       .  S
C3244      C3245   1.396       .  A
C3244      H3249   1.083       .  S
C3245      C3246   1.433       .  A
C3246     Br3247   1.926       .  S
C3251      C3252   1.401       .  A
C3251      C3256   1.407   1_655  A
C3251      H3258   1.083       .  S
C3252      C3253   1.430       .  A
C3253      C3254   1.402   1_655  A
C3253     Br3260   1.920       .  S
C3254      C3255   1.392       .  A
C3254      H3259   1.084       .  S
C3255      C3256   1.421       .  A
C3256     Br3257   1.921       .  S
C3261      C3262   1.405       .  A
C3261      C3266   1.399       .  A
C3261      H3268   1.080       .  S
C3262      C3263   1.415       .  A
C3263      C3264   1.386       .  A
C3263     Br3270   1.927       .  S
C3264      C3265   1.402       .  A
C3264      H3269   1.083       .  S
C3265      C3266   1.411       .  A
C3266     Br3267   1.921   1_655  S
C3271      C3272   1.409       .  A
C3271      C3276   1.413       .  A
C3271      H3278   1.083       .  S
C3272      C3273   1.411       .  A
C3273      C3274   1.406       .  A
C3273     Br3280   1.919       .  S
C3274      C3275   1.406       .  A
C3274      H3279   1.084       .  S
C3275      C3276   1.412       .  A
C3276     Br3277   1.917       .  S
C3281      C3282   1.401       .  A
C3281      C3286   1.409   1_565  A
C3281      H3288   1.083       .  S
C3282      C3283   1.420       .  A
C3283      C3284   1.402   1_565  A
C3283     Br3290   1.922       .  S
C3284      C3285   1.397       .  A
C3284      H3289   1.084       .  S
C3285      C3286   1.418       .  A
C3286     Br3287   1.919       .  S
C3291      C3292   1.424       .  A
C3291      C3296   1.405   1_455  A
C3291      H3298   1.083       .  S
C3292      C3293   1.403       .  A
C3293      C3294   1.407   1_455  A
C3293     Br3300   1.917       .  S
C3294      C3295   1.422       .  A
C3294      H3299   1.083       .  S
C3295      C3296   1.401       .  A
C3296     Br3297   1.918       .  S
C3301      C3302   1.402       .  A
C3301      C3306   1.393   1_545  A
C3301      H3308   1.084       .  S
C3302      C3303   1.406   1_545  A
C3303      C3304   1.393       .  A
C3303     Br3310   1.921       .  S
C3304      C3305   1.404       .  A
C3304      H3309   1.084       .  S
C3305      C3306   1.412       .  A
C3306     Br3307   1.922       .  S
C3311      C3312   1.401       .  A
C3311      C3316   1.377       .  A
C3311      H3318   1.081       .  S
C3312      C3313   1.406       .  A
C3313      C3314   1.403   1_655  A
C3313     Br3320   1.918       .  S
C3314      C3315   1.407   1_455  A
C3314      H3319   1.074       .  S
C3315      C3316   1.411       .  A
C3316     Br3317   1.930       .  S
C3321      C3322   1.402       .  A
C3321      C3326   1.396       .  A
C3321      H3328   1.083       .  S
C3322      C3323   1.414       .  A
C3323      C3324   1.391       .  A
C3323     Br3330   1.925       .  S
C3324      C3325   1.400       .  A
C3324      H3329   1.084       .  S
C3325      C3326   1.414       .  A
C3326     Br3327   1.922       .  S
C3331      C3332   1.420       .  A
C3331      C3336   1.405       .  A
C3331      H3338   1.083       .  S
C3332      C3333   1.403       .  A
C3333      C3334   1.404       .  A
C3333     Br3340   1.918       .  S
C3334      C3335   1.421       .  A
C3334      H3339   1.083       .  S
C3335      C3336   1.403       .  A
C3336     Br3337   1.918       .  S
C3341      C3342   1.399       .  A
C3341      C3346   1.376       .  A
C3341      H3348   1.083       .  S
C3342      C3343   1.409       .  A
C3343      C3344   1.401       .  A
C3343     Br3350   1.916       .  S
C3344      C3345   1.404       .  A
C3344      H3349   1.083       .  S
C3345      C3346   1.414       .  A
C3346     Br3347   1.931       .  S
C3351      C3352   1.403       .  A
C3351      C3356   1.404       .  A
C3351      H3358   1.083       .  S
C3352      C3353   1.415       .  A
C3353      C3354   1.413       .  A
C3353     Br3360   1.918       .  S
C3354      C3355   1.407       .  A
C3354      H3359   1.083       .  S
C3355      C3356   1.412       .  A
C3356     Br3357   1.920       .  S
C3361      C3362   1.421       .  A
C3361      C3366   1.409       .  A
C3361      H3368   1.083       .  S
C3362      C3363   1.405       .  A
C3363      C3364   1.403       .  A
C3363     Br3370   1.919       .  S
C3364      C3365   1.419       .  A
C3364      H3369   1.083       .  S
C3365      C3366   1.405       .  A
C3366     Br3367   1.917       .  S
C3371      C3372   1.414       .  A
C3371      C3376   1.413       .  A
C3371      H3378   1.083       .  S
C3372      C3373   1.405       .  A
C3373      C3374   1.406       .  A
C3373     Br3380   1.918       .  S
C3374      C3375   1.414       .  A
C3374      H3379   1.084       .  S
C3375      C3376   1.408       .  A
C3376     Br3377   1.916       .  S
C3381      C3382   1.414       .  A
C3381      C3386   1.416   1_655  A
C3381      H3388   1.083       .  S
C3382      C3383   1.407       .  A
C3383      C3384   1.404   1_655  A
C3383     Br3390   1.919       .  S
C3384      C3385   1.411       .  A
C3384      H3389   1.084       .  S
C3385      C3386   1.410       .  A
C3386     Br3387   1.916       .  S
C3391      C3392   1.394       .  A
C3391      C3396   1.407   1_556  A
C3391      H3398   1.083       .  S
C3392      C3393   1.431   1_556  A
C3393      C3394   1.408       .  A
C3393     Br3400   1.924   1_554  S
C3394      C3395   1.396       .  A
C3394      H3399   1.083       .  S
C3395      C3396   1.435       .  A
C3396     Br3397   1.926       .  S
C3401      C3402   1.412       .  A
C3401      C3406   1.412       .  A
C3401      H3408   1.083       .  S
C3402      C3403   1.406       .  A
C3403      C3404   1.406       .  A
C3403     Br3410   1.919       .  S
C3404      C3405   1.412       .  A
C3404      H3409   1.084       .  S
C3405      C3406   1.409       .  A
C3406     Br3407   1.916       .  S
C3411      C3412   1.405       .  A
C3411      C3416   1.409       .  A
C3411      H3418   1.083       .  S
C3412      C3413   1.415       .  A
C3413      C3414   1.415       .  A
C3413     Br3420   1.917       .  S
C3414      C3415   1.407       .  A
C3414      H3419   1.083       .  S
C3415      C3416   1.415       .  A
C3416     Br3417   1.920       .  S
C3421      C3422   1.406       .  A
C3421      C3426   1.414       .  A
C3421      H3428   1.083       .  S
C3422      C3423   1.414       .  A
C3423      C3424   1.404       .  A
C3423     Br3430   1.920       .  S
C3424      C3425   1.402       .  A
C3424      H3429   1.084       .  S
C3425      C3426   1.416       .  A
C3426     Br3427   1.917       .  S
C3431      C3432   1.398       .  A
C3431      C3436   1.390   1_554  A
C3431      H3438   1.084       .  S
C3432      C3433   1.406       .  A
C3433      C3434   1.400   1_554  A
C3433     Br3440   1.917       .  S
C3434      C3435   1.402       .  A
C3434      H3439   1.083       .  S
C3435      C3436   1.408       .  A
C3436     Br3437   1.923       .  S
C3441      C3442   1.416       .  A
C3441      C3446   1.402   1_655  A
C3441      H3448   1.084       .  S
C3442      C3443   1.408       .  A
C3443      C3444   1.414   1_655  A
C3443     Br3450   1.915       .  S
C3444      C3445   1.416       .  A
C3444      H3449   1.083       .  S
C3445      C3446   1.402       .  A
C3446     Br3447   1.917       .  S
C3451      C3452   1.419       .  A
C3451      C3456   1.407       .  A
C3451      H3458   1.083       .  S
C3452      C3453   1.408       .  A
C3453      C3454   1.410       .  A
C3453     Br3460   1.916       .  S
C3454      C3455   1.416       .  A
C3454      H3459   1.083       .  S
C3455      C3456   1.404       .  A
C3456     Br3457   1.918       .  S
C3461      C3462   1.393       .  A
C3461      C3466   1.405       .  A
C3461      H3468   1.084       .  S
C3462      C3463   1.426       .  A
C3463      C3464   1.406       .  A
C3463     Br3470   1.923       .  S
C3464      C3465   1.399       .  A
C3464      H3469   1.083       .  S
C3465      C3466   1.435       .  A
C3466     Br3467   1.926       .  S
C3471      C3472   1.425       .  A
C3471      C3476   1.400       .  A
C3471      H3478   1.082       .  S
C3472      C3473   1.405       .  A
C3473      C3474   1.414       .  A
C3473     Br3480   1.915       .  S
C3474      C3475   1.421       .  A
C3474      H3479   1.083       .  S
C3475      C3476   1.399       .  A
C3476     Br3477   1.920       .  S
C3481      C3482   1.405       .  A
C3481      C3486   1.405   1_455  A
C3481      H3488   1.083       .  S
C3482      C3483   1.407   1_455  A
C3483      C3484   1.373       .  A
C3483     Br3490   1.926       .  S
C3484      C3485   1.396       .  A
C3484      H3489   1.085       .  S
C3485      C3486   1.406       .  A
C3486     Br3487   1.917   1_655  S
C3491      C3492   1.423   1_554  A
C3491      C3496   1.397       .  A
C3491      H3498   1.082   1_554  S
C3492      C3493   1.406       .  A
C3493      C3494   1.413   1_556  A
C3493     Br3500   1.915       .  S
C3494      C3495   1.420       .  A
C3494      H3499   1.083       .  S
C3495      C3496   1.397       .  A
C3496     Br3497   1.919       .  S
C3501      C3502   1.397   1_655  A
C3501      C3506   1.381       .  A
C3501      H3508   1.085       .  S
C3502      C3503   1.405   1_556  A
C3503      C3504   1.404   1_455  A
C3503     Br3510   1.917       .  S
C3504      C3505   1.405       .  A
C3504      H3509   1.084       .  S
C3505      C3506   1.405   1_554  A
C3506     Br3507   1.924       .  S
C3511      C3512   1.403       .  A
C3511      C3516   1.410       .  A
C3511      H3518   1.083       .  S
C3512      C3513   1.421       .  A
C3513      C3514   1.406       .  A
C3513     Br3520   1.921       .  S
C3514      C3515   1.399       .  A
C3514      H3519   1.084       .  S
C3515      C3516   1.417       .  A
C3516     Br3517   1.918       .  S
C3521      C3522   1.402       .  A
C3521      C3526   1.384       .  A
C3521      H3528   1.082       .  S
C3522      C3523   1.411       .  A
C3523      C3524   1.400       .  A
C3523     Br3530   1.920       .  S
C3524      C3525   1.407       .  A
C3524      H3529   1.083       .  S
C3525      C3526   1.414       .  A
C3526     Br3527   1.928       .  S
C3531      C3532   1.420       .  A
C3531      C3536   1.406       .  A
C3531      H3538   1.083       .  S
C3532      C3533   1.405       .  A
C3533      C3534   1.404       .  A
C3533     Br3540   1.919       .  S
C3534      C3535   1.419       .  A
C3534      H3539   1.083       .  S
C3535      C3536   1.405       .  A
C3536     Br3537   1.917       .  S
C3541      C3542   1.403       .  A
C3541      C3546   1.412   1_556  A
C3541      H3548   1.083       .  S
C3542      C3543   1.419       .  A
C3543      C3544   1.402   1_556  A
C3543     Br3550   1.920       .  S
C3544      C3545   1.397       .  A
C3544      H3549   1.084       .  S
C3545      C3546   1.417       .  A
C3546     Br3547   1.918       .  S
C3551      C3552   1.401       .  A
C3551      C3556   1.393   1_556  A
C3551      H3558   1.084       .  S
C3552      C3553   1.408       .  A
C3553      C3554   1.396   1_556  A
C3553     Br3560   1.919       .  S
C3554      C3555   1.399       .  A
C3554      H3559   1.084       .  S
C3555      C3556   1.407       .  A
C3556     Br3557   1.922       .  S
C3561      C3562   1.412       .  A
C3561      C3566   1.413       .  A
C3561      H3568   1.083       .  S
C3562      C3563   1.406       .  A
C3563      C3564   1.401       .  A
C3563     Br3570   1.920       .  S
C3564      C3565   1.410       .  A
C3564      H3569   1.084       .  S
C3565      C3566   1.408       .  A
C3566     Br3567   1.916       .  S
C3571      C3572   1.394       .  A
C3571      C3576   1.405   1_655  A
C3571      H3578   1.083       .  S
C3572      C3573   1.434       .  A
C3573      C3574   1.409   1_655  A
C3573     Br3580   1.925       .  S
C3574      C3575   1.396       .  A
C3574      H3579   1.083       .  S
C3575      C3576   1.434       .  A
C3576     Br3577   1.926       .  S
C3581      C3582   1.404       .  A
C3581      C3586   1.411   1_556  A
C3581      H3588   1.083       .  S
C3582      C3583   1.417       .  A
C3583      C3584   1.402   1_556  A
C3583     Br3590   1.921       .  S
C3584      C3585   1.399       .  A
C3584      H3589   1.084       .  S
C3585      C3586   1.416       .  A
C3586     Br3587   1.918       .  S
C3591      C3592   1.401       .  A
C3591      C3596   1.399   1_556  A
C3591      H3598   1.083   1_556  S
C3592      C3593   1.408       .  A
C3593      C3594   1.389       .  A
C3593     Br3600   1.923       .  S
C3594      C3595   1.396   1_556  A
C3594      H3599   1.084       .  S
C3595      C3596   1.405       .  A
C3596     Br3597   1.917       .  S
C3601      C3602   1.400       .  A
C3601      C3606   1.385       .  A
C3601      H3608   1.084       .  S
C3602      C3603   1.409       .  A
C3603      C3604   1.401       .  A
C3603     Br3610   1.918       .  S
C3604      C3605   1.405       .  A
C3604      H3609   1.083   1_655  S
C3605      C3606   1.411       .  A
C3606     Br3607   1.926       .  S
C3611      C3612   1.408       .  A
C3611      C3616   1.407       .  A
C3611      H3618   1.083       .  S
C3612      C3613   1.412       .  A
C3613      C3614   1.368       .  A
C3613     Br3620   1.935       .  S
C3614      C3615   1.398       .  A
C3614      H3619   1.083       .  S
C3615      C3616   1.408       .  A
C3616     Br3617   1.917       .  S
C3621      C3622   1.404       .  A
C3621      C3626   1.414       .  A
C3621      H3628   1.083       .  S
C3622      C3623   1.419       .  A
C3623      C3624   1.403       .  A
C3623     Br3630   1.920       .  S
C3624      C3625   1.399       .  A
C3624      H3629   1.084       .  S
C3625      C3626   1.419       .  A
C3626     Br3627   1.918       .  S
C3631      C3632   1.397       .  A
C3631      C3636   1.407       .  A
C3631      H3638   1.083       .  S
C3632      C3633   1.436       .  A
C3633      C3634   1.408       .  A
C3633     Br3640   1.926       .  S
C3634      C3635   1.394       .  A
C3634      H3639   1.084       .  S
C3635      C3636   1.429       .  A
C3636     Br3637   1.924       .  S
C3641      C3642   1.401       .  A
C3641      C3646   1.403       .  A
C3641      H3648   1.084       .  S
C3642      C3643   1.413       .  A
C3643      C3644   1.410       .  A
C3643     Br3650   1.918       .  S
C3644      C3645   1.405       .  A
C3644      H3649   1.083       .  S
C3645      C3646   1.413       .  A
C3646     Br3647   1.920       .  S
C3651      C3652   1.403       .  A
C3651      C3656   1.388       .  A
C3651      H3658   1.083       .  S
C3652      C3653   1.412       .  A
C3653      C3654   1.399       .  A
C3653     Br3660   1.919       .  S
C3654      C3655   1.406       .  A
C3654      H3659   1.083       .  S
C3655      C3656   1.413       .  A
C3656     Br3657   1.924       .  S
C3661      C3662   1.417       .  A
C3661      C3666   1.400       .  A
C3661      H3668   1.083       .  S
C3662      C3663   1.407       .  A
C3663      C3664   1.410       .  A
C3663     Br3670   1.916       .  S
C3664      C3665   1.415       .  A
C3664      H3669   1.084       .  S
C3665      C3666   1.400       .  A
C3666     Br3667   1.919       .  S
C3671      C3672   1.403       .  A
C3671      C3676   1.395       .  A
C3671      H3678   1.084       .  S
C3672      C3673   1.411       .  A
C3673      C3674   1.394       .  A
C3673     Br3680   1.922       .  S
C3674      C3675   1.400       .  A
C3674      H3679   1.084       .  S
C3675      C3676   1.405       .  A
C3676     Br3677   1.920       .  S
C3681      C3682   1.406       .  A
C3681      C3686   1.413   1_655  A
C3681      H3688   1.083       .  S
C3682      C3683   1.413       .  A
C3683      C3684   1.406   1_655  A
C3683     Br3690   1.919       .  S
C3684      C3685   1.403       .  A
C3684      H3689   1.084       .  S
C3685      C3686   1.415       .  A
C3686     Br3687   1.917       .  S
C3691      C3692   1.401       .  A
C3691      C3696   1.380       .  A
C3691      H3698   1.084       .  S
C3692      C3693   1.404       .  A
C3693      C3694   1.399   1_655  A
C3693     Br3700   1.914       .  S
C3694      C3695   1.406   1_455  A
C3694      H3699   1.084       .  S
C3695      C3696   1.407       .  A
C3696     Br3697   1.924       .  S
C3701      C3702   1.400       .  A
C3701      C3706   1.398       .  A
C3701      H3708   1.083       .  S
C3702      C3703   1.408       .  A
C3703      C3704   1.384       .  A
C3703     Br3710   1.925       .  S
C3704      C3705   1.397       .  A
C3704      H3709   1.084       .  S
C3705      C3706   1.407       .  A
C3706     Br3707   1.917       .  S
C3711      C3712   1.419       .  A
C3711      C3716   1.402       .  A
C3711      H3718   1.083       .  S
C3712      C3713   1.408       .  A
C3713      C3714   1.410       .  A
C3713     Br3720   1.917       .  S
C3714      C3715   1.416       .  A
C3714      H3719   1.083       .  S
C3715      C3716   1.402       .  A
C3716     Br3717   1.919       .  S
C3721      C3722   1.401       .  A
C3721      C3726   1.409       .  A
C3721      H3728   1.083       .  S
C3722      C3723   1.433       .  A
C3723      C3724   1.407       .  A
C3723     Br3730   1.924       .  S
C3724      C3725   1.395       .  A
C3724      H3729   1.084       .  S
C3725      C3726   1.424       .  A
C3726     Br3727   1.922       .  S
C3731      C3732   1.421       .  A
C3731      C3736   1.410       .  A
C3731      H3738   1.083       .  S
C3732      C3733   1.405       .  A
C3733      C3734   1.408       .  A
C3733     Br3740   1.918       .  S
C3734      C3735   1.422       .  A
C3734      H3739   1.082       .  S
C3735      C3736   1.407       .  A
C3736     Br3737   1.918       .  S
C3741      C3742   1.417       .  A
C3741      C3746   1.401   1_565  A
C3741      H3748   1.084       .  S
C3742      C3743   1.406       .  A
C3743      C3744   1.413   1_565  A
C3743     Br3750   1.915       .  S
C3744      C3745   1.416       .  A
C3744      H3749   1.083       .  S
C3745      C3746   1.401       .  A
C3746     Br3747   1.919       .  S
C3751      C3752   1.393       .  A
C3751      C3756   1.405       .  A
C3751      H3758   1.083       .  S
C3752      C3753   1.430       .  A
C3753      C3754   1.410   1_554  A
C3753     Br3760   1.923       .  S
C3754      C3755   1.398       .  A
C3754      H3759   1.083       .  S
C3755      C3756   1.436   1_556  A
C3756     Br3757   1.927   1_554  S
C3761      C3762   1.421       .  A
C3761      C3766   1.407       .  A
C3761      H3768   1.082       .  S
C3762      C3763   1.407       .  A
C3763      C3764   1.409       .  A
C3763     Br3770   1.917       .  S
C3764      C3765   1.419       .  A
C3764      H3769   1.083       .  S
C3765      C3766   1.405       .  A
C3766     Br3767   1.918       .  S
C3771      C3772   1.419       .  A
C3771      C3776   1.410       .  A
C3771      H3778   1.083       .  S
C3772      C3773   1.404       .  A
C3773      C3774   1.409       .  A
C3773     Br3780   1.918       .  S
C3774      C3775   1.423       .  A
C3774      H3779   1.083       .  S
C3775      C3776   1.408       .  A
C3776     Br3777   1.917       .  S
C3781      C3782   1.407       .  A
C3781      C3786   1.403       .  A
C3781      H3788   1.084       .  S
C3782      C3783   1.411       .  A
C3783      C3784   1.413       .  A
C3783     Br3790   1.916       .  S
C3784      C3785   1.410       .  A
C3784      H3789   1.083       .  S
C3785      C3786   1.408       .  A
C3786     Br3787   1.919       .  S
C3791      C3792   1.410   1_554  A
C3791      C3796   1.405       .  A
C3791      H3798   1.084       .  S
C3792      C3793   1.414       .  A
C3793      C3794   1.379       .  A
C3793     Br3800   1.926       .  S
C3794      C3795   1.397   1_556  A
C3794      H3799   1.080       .  S
C3795      C3796   1.411       .  A
C3796     Br3797   1.919       .  S
C3801      C3802   1.407       .  A
C3801      C3806   1.413   1_565  A
C3801      H3808   1.083       .  S
C3802      C3803   1.413       .  A
C3803      C3804   1.403   1_565  A
C3803     Br3810   1.921       .  S
C3804      C3805   1.403       .  A
C3804      H3809   1.084       .  S
C3805      C3806   1.413       .  A
C3806     Br3807   1.917       .  S
C3811      C3812   1.400       .  A
C3811      C3816   1.409       .  A
C3811      H3818   1.083       .  S
C3812      C3813   1.433       .  A
C3813      C3814   1.408       .  A
C3813     Br3820   1.921       .  S
C3814      C3815   1.395       .  A
C3814      H3819   1.083       .  S
C3815      C3816   1.427       .  A
C3816     Br3817   1.923       .  S
C3821      C3822   1.411       .  A
C3821      C3826   1.413       .  A
C3821      H3828   1.083       .  S
C3822      C3823   1.406       .  A
C3823      C3824   1.407       .  A
C3823     Br3830   1.919       .  S
C3824      C3825   1.410       .  A
C3824      H3829   1.083       .  S
C3825      C3826   1.410       .  A
C3826     Br3827   1.916       .  S
C3831      C3832   1.403       .  A
C3831      C3836   1.414       .  A
C3831      H3838   1.083       .  S
C3832      C3833   1.423       .  A
C3833      C3834   1.405       .  A
C3833     Br3840   1.918       .  S
C3834      C3835   1.396       .  A
C3834      H3839   1.084       .  S
C3835      C3836   1.421       .  A
C3836     Br3837   1.919       .  S
C3841      C3842   1.403       .  A
C3841      C3846   1.395   1_545  A
C3841      H3848   1.084       .  S
C3842      C3843   1.415       .  A
C3843      C3844   1.397   1_545  A
C3843     Br3850   1.921       .  S
C3844      C3845   1.400       .  A
C3844      H3849   1.083       .  S
C3845      C3846   1.404       .  A
C3846     Br3847   1.914       .  S
C3851      C3852   1.408       .  A
C3851      C3856   1.403   1_556  A
C3851      H3858   1.084       .  S
C3852      C3853   1.411       .  A
C3853      C3854   1.414   1_556  A
C3853     Br3860   1.916       .  S
C3854      C3855   1.411       .  A
C3854      H3859   1.083       .  S
C3855      C3856   1.408       .  A
C3856     Br3857   1.919       .  S
C3861      C3862   1.402   1_565  A
C3861      C3866   1.393   1_556  A
C3861      H3868   1.084       .  S
C3862      C3863   1.416   1_556  A
C3863      C3864   1.400   1_545  A
C3863     Br3870   1.921       .  S
C3864      C3865   1.403       .  A
C3864      H3869   1.083       .  S
C3865      C3866   1.407       .  A
C3866     Br3867   1.912       .  S
C3871      C3872   1.392       .  A
C3871      C3876   1.403       .  A
C3871      H3878   1.084       .  S
C3872      C3873   1.425       .  A
C3873      C3874   1.411       .  A
C3873     Br3880   1.921       .  S
C3874      C3875   1.401       .  A
C3874      H3879   1.083       .  S
C3875      C3876   1.432       .  A
C3876     Br3877   1.921       .  S
C3881      C3882   1.401       .  A
C3881      C3886   1.384       .  A
C3881      H3888   1.084       .  S
C3882      C3883   1.407       .  A
C3883      C3884   1.400       .  A
C3883     Br3890   1.919       .  S
C3884      C3885   1.404       .  A
C3884      H3889   1.083       .  S
C3885      C3886   1.408       .  A
C3886     Br3887   1.925       .  S
C3891      C3892   1.414       .  A
C3891      C3896   1.410       .  A
C3891      H3898   1.083       .  S
C3892      C3893   1.401       .  A
C3893      C3894   1.403       .  A
C3893     Br3900   1.919       .  S
C3894      C3895   1.417       .  A
C3894      H3899   1.082       .  S
C3895      C3896   1.408       .  A
C3896     Br3897   1.917       .  S
C3901      C3902   1.391       .  A
C3901      C3906   1.403   1_556  A
C3901      H3908   1.084       .  S
C3902      C3903   1.426   1_556  A
C3903      C3904   1.405       .  A
C3903     Br3910   1.923   1_554  S
C3904      C3905   1.397       .  A
C3904      H3909   1.083       .  S
C3905      C3906   1.436       .  A
C3906     Br3907   1.927       .  S
C3911      C3912   1.402       .  A
C3911      C3916   1.394       .  A
C3911      H3918   1.085       .  S
C3912      C3913   1.406       .  A
C3913      C3914   1.397   1_556  A
C3913     Br3920   1.916       .  S
C3914      C3915   1.399       .  A
C3914      H3919   1.084       .  S
C3915      C3916   1.405   1_554  A
C3916     Br3917   1.923       .  S
C3921      C3922   1.418       .  A
C3921      C3926   1.412       .  A
C3921      H3928   1.084       .  S
C3922      C3923   1.401       .  A
C3923      C3924   1.403       .  A
C3923     Br3930   1.919       .  S
C3924      C3925   1.419       .  A
C3924      H3929   1.083       .  S
C3925      C3926   1.406       .  A
C3926     Br3927   1.916       .  S
C3931      C3932   1.397       .  A
C3931      C3936   1.402   1_565  A
C3931      H3938   1.084       .  S
C3932      C3933   1.416       .  A
C3933      C3934   1.409   1_565  A
C3933     Br3940   1.918       .  S
C3934      C3935   1.402       .  A
C3934      H3939   1.083       .  S
C3935      C3936   1.419       .  A
C3936     Br3937   1.921       .  S
C3941      C3942   1.418   1_554  A
C3941      C3946   1.405       .  A
C3941      H3948   1.083   1_554  S
C3942      C3943   1.403       .  A
C3943      C3944   1.406   1_556  A
C3943     Br3950   1.918       .  S
C3944      C3945   1.421       .  A
C3944      H3949   1.082       .  S
C3945      C3946   1.406       .  A
C3946     Br3947   1.919       .  S
C3951      C3952   1.405       .  A
C3951      C3956   1.400       .  A
C3951      H3958   1.084       .  S
C3952      C3953   1.404   1_554  A
C3953      C3954   1.384       .  A
C3953     Br3960   1.923       .  S
C3954      C3955   1.400       .  A
C3954      H3959   1.085       .  S
C3955      C3956   1.403   1_556  A
C3956     Br3957   1.916       .  S
C3961      C3962   1.402       .  A
C3961      C3966   1.396       .  A
C3961      H3968   1.083       .  S
C3962      C3963   1.411       .  A
C3963      C3964   1.396       .  A
C3963     Br3970   1.922       .  S
C3964      C3965   1.403       .  A
C3964      H3969   1.084       .  S
C3965      C3966   1.413       .  A
C3966     Br3967   1.921   1_565  S
C3971      C3972   1.405       .  A
C3971      C3976   1.403       .  A
C3971      H3978   1.083       .  S
C3972      C3973   1.407       .  A
C3973      C3974   1.375       .  A
C3973     Br3980   1.928       .  S
C3974      C3975   1.396       .  A
C3974      H3979   1.085       .  S
C3975      C3976   1.405       .  A
C3976     Br3977   1.917       .  S
C3981      C3982   1.414       .  A
C3981      C3986   1.412       .  A
C3981      H3988   1.084       .  S
C3982      C3983   1.405       .  A
C3983      C3984   1.404       .  A
C3983     Br3990   1.918       .  S
C3984      C3985   1.413       .  A
C3984      H3989   1.084       .  S
C3985      C3986   1.408       .  A
C3986     Br3987   1.916       .  S
C3991      C3992   1.417       .  A
C3991      C3996   1.411       .  A
C3991      H3998   1.083       .  S
C3992      C3993   1.404       .  A
C3993      C3994   1.404       .  A
C3993     Br4000   1.919       .  S
C3994      C3995   1.419       .  A
C3994      H3999   1.083       .  S
C3995      C3996   1.409       .  A
C3996     Br3997   1.917       .  S
C4001      C4002   1.418       .  A
C4001      C4006   1.401       .  A
C4001      H4008   1.083       .  S
C4002      C4003   1.401       .  A
C4003      C4004   1.403       .  A
C4003     Br4010   1.917       .  S
C4004      C4005   1.421       .  A
C4004      H4009   1.083       .  S
C4005      C4006   1.403       .  A
C4006     Br4007   1.919       .  S
C4011      C4012   1.417       .  A
C4011      C4016   1.408       .  A
C4011      H4018   1.084       .  S
C4012      C4013   1.402       .  A
C4013      C4014   1.405       .  A
C4013     Br4020   1.917       .  S
C4014      C4015   1.420       .  A
C4014      H4019   1.083       .  S
C4015      C4016   1.407       .  A
C4016     Br4017   1.917       .  S
C4021      C4022   1.402       .  A
C4021      C4026   1.401       .  A
C4021      H4028   1.083       .  S
C4022      C4023   1.413       .  A
C4023      C4024   1.380       .  A
C4023     Br4030   1.929       .  S
C4024      C4025   1.396       .  A
C4024      H4029   1.084       .  S
C4025      C4026   1.411       .  A
C4026     Br4027   1.920       .  S
C4031      C4032   1.407       .  A
C4031      C4036   1.401       .  A
C4031      H4038   1.083       .  S
C4032      C4033   1.409       .  A
C4033      C4034   1.378       .  A
C4033     Br4040   1.928       .  S
C4034      C4035   1.400       .  A
C4034      H4039   1.084       .  S
C4035      C4036   1.403       .  A
C4036     Br4037   1.917       .  S
C4041      C4042   1.418       .  A
C4041      C4046   1.406   1_565  A
C4041      H4048   1.083       .  S
C4042      C4043   1.402       .  A
C4043      C4044   1.403   1_565  A
C4043     Br4050   1.919       .  S
C4044      C4045   1.421       .  A
C4044      H4049   1.082       .  S
C4045      C4046   1.406       .  A
C4046     Br4047   1.918       .  S
C4051      C4052   1.401       .  A
C4051      C4056   1.400   1_565  A
C4051      H4058   1.084       .  S
C4052      C4053   1.415       .  A
C4053      C4054   1.381       .  A
C4053     Br4060   1.929       .  S
C4054      C4055   1.397       .  A
C4054      H4059   1.084       .  S
C4055      C4056   1.412   1_565  A
C4056     Br4057   1.916       .  S
C4061      C4062   1.399       .  A
C4061      C4066   1.382       .  A
C4061      H4068   1.084       .  S
C4062      C4063   1.408       .  A
C4063      C4064   1.400       .  A
C4063     Br4070   1.917       .  S
C4064      C4065   1.404       .  A
C4064      H4069   1.083       .  S
C4065      C4066   1.411       .  A
C4066     Br4067   1.927       .  S
C4071      C4072   1.396       .  A
C4071      C4076   1.405       .  A
C4071      H4078   1.083       .  S
C4072      C4073   1.433       .  A
C4073      C4074   1.405       .  A
C4073     Br4080   1.926       .  S
C4074      C4075   1.394       .  A
C4074      H4079   1.083       .  S
C4075      C4076   1.429       .  A
C4076     Br4077   1.924       .  S
