geometry optimzed in LAMMPS
_audit_creation_date              2020-11-30 
_audit_creation_method            'lammps2cif' 
_symmetry_space_group_name_H-M    'P1' 
_symmetry_Int_Tables_number       1 
_symmetry_cell_setting            triclinic 
loop_ 
_symmetry_equiv_pos_as_xyz 
  x,y,z 
_cell_length_a                    35.51933292 
_cell_length_b                    35.4257286235535 
_cell_length_c                    25.598866404905948 
_cell_angle_alpha                 89.31811360411068 
_cell_angle_beta                  88.8058382689326 
_cell_angle_gamma                 91.54574422564379 
loop_ 
_atom_site_label 
_atom_site_type_symbol 
_atom_site_fract_x 
_atom_site_fract_y 
_atom_site_fract_z 
_atom_site_charge 
O1          O  0.24715171  0.18385657  0.34957696    -0.79300
O2          O  0.24198545  0.17840205  0.64853214    -0.80900
O3          O  0.28310201  0.13356010  0.48207861    -0.77900
O4          O  0.16246065  0.16118082  0.51709588    -0.76300
O5          O  0.12899715  0.21482545  0.50665727    -0.78100
O6          O  0.33729247  0.16834995  0.48916845    -0.79000
O7          O  0.23438110  0.13843947  0.57954303    -0.80300
O8          O  0.22671118  0.14185586  0.41419111    -0.80600
Eu9        Eu  0.23010917  0.17482597  0.49748430     2.39200
O10         O  0.20231200  0.21919256  0.55201199    -0.88100
O11         O  0.27519836  0.20606731  0.44283561    -0.91700
C12         C  0.23765189  0.14981999  0.36685774     1.03000
C13         C  0.23901519  0.14444372  0.62872692     1.02800
C14         C  0.31925518  0.13719016  0.48120514     1.02700
C15         C  0.13183349  0.18012934  0.51927906     1.00600
H16         H  0.28814674  0.18454927  0.57233046     0.30300
O17         O  0.27423263  0.20309912  0.55339879    -1.00500
H18         H  0.18541228  0.20654855  0.41987082     0.30400
O19         O  0.20409533  0.21959283  0.44036487    -1.03000
O20         O  0.24781810  0.31376803  0.64997809    -0.80300
O21         O  0.25395647  0.32084385  0.35183826    -0.79800
O22         O  0.35296319  0.22791337  0.57937989    -0.78200
O23         O  0.13932576  0.26578303  0.57807077    -0.81600
O24         O  0.14325643  0.26525853  0.41242427    -0.79400
O25         O  0.35747022  0.23817949  0.41865174    -0.78100
O26         O  0.33091842  0.33774777  0.52065892    -0.79600
O27         O  0.21518110  0.36078903  0.48118313    -0.81500
O28         O  0.36094113  0.28240510  0.52255802    -0.78300
O29         O  0.15877924  0.32958955  0.48684515    -0.81000
O30         O  0.31326870  0.24266100  0.64707815    -0.76700
O31         O  0.31932913  0.24821544  0.34901197    -0.76700
O32         O  0.18529769  0.25773571  0.34452832    -0.76400
O33         O  0.17648766  0.25090243  0.64682817    -0.79900
O34         O  0.25711131  0.35642674  0.58242716    -0.79300
O35         O  0.27004992  0.35841624  0.41985776    -0.77600
Eu36       Eu  0.24512966  0.24649639  0.61199175     2.39800
Eu37       Eu  0.25083580  0.25148177  0.38478798     2.39600
Eu38       Eu  0.31893041  0.23319413  0.49832136     2.38400
Eu39       Eu  0.17566009  0.26382141  0.49592744     2.39900
Eu40       Eu  0.26545500  0.32119335  0.50121919     2.39800
O41         O  0.22276931  0.29301413  0.44428282    -0.92000
O42         O  0.29054690  0.27558016  0.55520855    -0.90900
C43         C  0.25098870  0.34841591  0.63113704     1.03100
C44         C  0.26130521  0.35425776  0.37158049     1.01900
C45         C  0.34688713  0.23484034  0.62799072     1.01300
C46         C  0.14371371  0.25890789  0.62708035     1.03300
C47         C  0.15103526  0.26193229  0.36335570     1.02200
C48         C  0.35258842  0.24392953  0.36959378     1.01000
C49         C  0.35986305  0.31774784  0.52984771     1.01100
C50         C  0.17945254  0.35945903  0.47884884     1.03700
H51         H  0.31464080  0.29467374  0.42477329     0.31100
O52         O  0.29501614  0.28016474  0.44313496    -1.04200
H53         H  0.20355750  0.30973034  0.57337112     0.33100
O54         O  0.21797756  0.29159645  0.55418509    -1.06700
N55         N  0.53535988  0.44091767  0.48496207    -0.35800
N56         N  0.46327201  0.96946490  0.47323035    -0.56300
N57         N  0.48105114  0.03676846  0.52028829    -0.35800
N58         N  0.05912814  0.01692535  0.53258026    -0.56300
C59         C  0.51611248  0.41720040  0.51725658     0.27800
C60         C  0.06973737  0.44519692  0.50418484     0.27800
C61         C  0.44332806  0.03829641  0.51859636     0.27800
C62         C  0.99264541  0.06105486  0.55767130     0.27800
C63         C  0.45633091  0.43056900  0.47844418     0.36400
C64         C  0.43116623  0.98545165  0.45985001     0.36400
C65         C  0.08590759  0.50988458  0.49626449     0.36400
C66         C  0.05924127  0.05454561  0.53567509     0.36400
C67         C  0.53872532  0.40566168  0.55770740    -0.21100
C68         C  0.07355801  0.42359992  0.54885949    -0.21100
C69         C  0.43046698  0.06359897  0.55546772    -0.21100
C70         C  0.96178036  0.07770997  0.58090888    -0.21100
C71         C  0.42116598  0.42158840  0.45851061    -0.22100
C72         C  0.40619690  0.95831501  0.44132347    -0.22100
C73         C  0.10514597  0.54170101  0.47853577    -0.22100
C74         C  0.08933933  0.07008091  0.50638512    -0.22100
C75         C  0.47835132  0.40780891  0.51032670    -0.17500
C76         C  0.09451036  0.47307174  0.48526675    -0.17500
C77         C  0.03013337  0.07431817  0.56038090    -0.17500
C78         C  0.42124527  0.02029422  0.48046572    -0.17500
H79         H  0.53062871  0.38766219  0.59071954     0.15400
H80         H  0.09765528  0.42292012  0.57394037     0.15400
H81         H  0.40173182  0.07192257  0.56245314     0.15400
H82         H  0.96211829  0.09989702  0.60961845     0.15400
H83         H  0.40798680  0.39380852  0.45628785     0.13700
H84         H  0.37703331  0.96200803  0.43154971     0.13700
H85         H  0.12840757  0.54391661  0.45066361     0.13700
H86         H  0.09729223  0.09871983  0.49880166     0.13700
H87         H  0.52584676  0.45446337  0.45144766     0.27000
H88         H  0.49820470  0.02543617  0.49125995     0.27000
O89         O  0.99192014  0.43038503  0.84978371    -0.79300
O90         O  0.99863356  0.43507083  0.15047740    -0.80900
O91         O  0.02764846  0.38023264  0.98429950    -0.77900
O92         O  0.41382042  0.41265898  0.02362466    -0.76300
O93         O  0.38420785  0.46866146  0.02588155    -0.78100
O94         O  0.08244993  0.41392904  0.98543008    -0.79000
O95         O  0.98920579  0.39281101  0.08418960    -0.80300
O96         O  0.97478879  0.39084194  0.91834623    -0.80600
Eu97       Eu  0.97979128  0.42600601  0.00038871     2.39200
O98         O  0.45605221  0.47351257  0.05325767    -0.88100
O99         O  0.02321118  0.45354187  0.94023622    -0.91700
C100        C  0.98322112  0.39684111  0.86950555     1.03000
C101        C  0.99604053  0.40073952  0.13229638     1.02800
C102        C  0.06361649  0.38287382  0.98060007     1.02700
C103        C  0.38525676  0.43310949  0.03431032     1.00600
H104        H  0.04131175  0.43698814  0.07036627     0.30300
O105        O  0.02657417  0.45490262  0.05156398    -1.00500
H106        H  0.43309597  0.45603015  0.92520213     0.30400
O107        O  0.45272516  0.46974593  0.94308227    -1.03000
O108        O  0.00626411  0.06812419  0.14869948    -0.80300
O109        O  0.00072658  0.06781472  0.84779815    -0.79800
O110        O  0.10637986  0.47646075  0.07124094    -0.78200
O111        O  0.39346918  0.52793079  0.07854241    -0.81600
O112        O  0.39145416  0.01192743  0.91616554    -0.79400
O113        O  0.10363311  0.97594174  0.90658066    -0.78100
O114        O  0.08626046  0.08358873  0.00535422    -0.79600
O115        O  0.47039296  0.11617886  0.98431370    -0.81500
O116        O  0.11667395  0.02841184  0.99293920    -0.78300
O117        O  0.41426506  0.08343746  0.98122205    -0.81000
O118        O  0.07031489  0.49678095  0.13958505    -0.76700
O119        O  0.06327570  0.99067544  0.84105148    -0.76700
O120        O  0.43099191  0.00125491  0.84644346    -0.76400
O121        O  0.43237420  0.50791457  0.14338556    -0.79900
O122        O  0.51796907  0.10572096  0.07751753    -0.79300
O123        O  0.51932113  0.10613162  0.91388954    -0.77600
Eu124      Eu  0.00107230  0.50117519  0.10944792     2.39800
Eu125      Eu  0.99751662  0.99852557  0.88246756     2.39600
Eu126      Eu  0.06978013  0.98089753  0.99063696     2.38400
Eu127      Eu  0.42737350  0.01685503  0.99716684     2.39900
Eu128      Eu  0.01896857  0.07099993  0.99501974     2.39800
O129        O  0.47346539  0.04304876  0.94143458    -0.92000
O130        O  0.04605563  0.02633963  0.04824543    -0.90900
C131        C  0.51194744  0.10180148  0.12709135     1.03100
C132        C  0.00929153  0.10128809  0.86678441     1.01900
C133        C  0.10284398  0.48664038  0.11927216     1.01300
C134        C  0.39946076  0.51849879  0.12633601     1.03300
C135        C  0.39739607  0.00546937  0.86710687     1.02200
C136        C  0.09661896  0.98224092  0.85811656     1.01000
C137        C  0.11567481  0.06311789  0.00449970     1.01100
C138        C  0.43468552  0.11399946  0.97863271     1.03700
H139        H  0.06377697  0.04011131  0.91513241     0.31100
O140        O  0.04436591  0.02732472  0.93619367    -1.04200
H141        H  0.45978468  0.06455760  0.07066141     0.33100
O142        O  0.47239045  0.04512036  0.05145461    -1.06700
N143        N  0.22140420  0.29130246  0.04373229    -0.35800
N144        N  0.19774564  0.21559268  0.04143136    -0.56300
N145        N  0.27649494  0.19958677  0.02161266    -0.35800
N146        N  0.29753391  0.27499164  0.02615917    -0.56300
C147        C  0.18464992  0.29084414  0.05518760     0.27800
C148        C  0.23711578  0.32087661  0.06782024     0.27800
C149        C  0.26342218  0.16736622  0.04416589     0.27800
C150        C  0.31402448  0.19844432  0.02144768     0.27800
C151        C  0.16849496  0.23134599  0.01807872     0.36400
C152        C  0.19856491  0.18014404  0.02487048     0.36400
C153        C  0.29863499  0.31264298  0.02541026     0.36400
C154        C  0.32753365  0.26382469  0.99853002     0.36400
C155        C  0.17600311  0.32060017  0.08721592    -0.21100
C156        C  0.20980950  0.33923404  0.09669708    -0.21100
C157        C  0.29281969  0.14551561  0.05996922    -0.21100
C158        C  0.32513789  0.16498105  0.04437960    -0.21100
C159        C  0.14982834  0.20570770  0.98708200    -0.22100
C160        C  0.16861520  0.17239228  0.99232638    -0.22100
C161        C  0.33047810  0.32590763  0.99770347    -0.22100
C162        C  0.34888427  0.29444816  0.98048925    -0.22100
C163        C  0.15995542  0.26888139  0.02625649    -0.17500
C164        C  0.27397549  0.33361535  0.05669727    -0.17500
C165        C  0.33716446  0.22610823  0.99661820    -0.17500
C166        C  0.22609079  0.15546597  0.04140932    -0.17500
H167        H  0.14838806  0.32849214  0.10074708     0.15400
H168        H  0.21318828  0.36480216  0.11867102     0.15400
H169        H  0.29110864  0.11740060  0.07698203     0.15400
H170        H  0.35318844  0.15499244  0.04860828     0.15400
H171        H  0.12572488  0.21081739  0.96327817     0.13700
H172        H  0.16221654  0.14652021  0.97214610     0.13700
H173        H  0.33977313  0.35490787  0.99134377     0.13700
H174        H  0.37572944  0.29367964  0.96008484     0.13700
H175        H  0.23302991  0.27604305  0.01317259     0.27000
H176        H  0.26105539  0.21853178  0.99979872     0.27000
C177        C  0.00236645  0.25211673  0.24792013    -0.01700
C178        C  0.24823133  0.00276549  0.24665116    -0.01700
C179        C  0.99360589  0.24975190  0.74867278    -0.01700
C180        C  0.25062413  0.99658750  0.75139782    -0.01700
C181        C  0.21084956  0.49630166  0.21089638    -0.04500
C182        C  0.20986916  0.99875054  0.15492496    -0.01600
C183        C  0.17584999  0.99290308  0.12635775     0.03400
C184        C  0.13985430  0.48770315  0.15113381    -0.04500
C185        C  0.14010825  0.48360883  0.20606740    -0.01600
C186        C  0.17434775  0.48672600  0.23516124     0.03400
C187        C  0.24328379  0.00707341  0.12360578     0.38000
C188        C  0.10452880  0.47566607  0.23316436     0.38000
C189        C  0.17002479  0.48450180  0.29151417     0.36400
C190        C  0.17930302  0.99069135  0.06984844     0.36400
N191        N  0.16482349  0.48313742  0.33624659    -0.38400
N192        N  0.18302300  0.98787902  0.02507525    -0.38400
N193        N  0.07568526  0.46947423  0.25371474    -0.37800
N194        N  0.26826973  0.01432118  0.09531839    -0.37900
C195        C  0.28957751  0.50678930  0.21552893    -0.04500
C196        C  0.30153599  0.04152555  0.18858959    -0.01600
C197        C  0.33851734  0.04672144  0.16525006     0.03400
C198        C  0.36413153  0.51670302  0.16167363    -0.04500
C199        C  0.35364740  0.48335593  0.18838598    -0.01600
C200        C  0.32020801  0.48022814  0.21998436     0.03400
C201        C  0.27642737  0.07291231  0.18350584     0.38000
C202        C  0.37862367  0.45192247  0.18471723     0.38000
C203        C  0.32456092  0.45449606  0.26372257     0.36400
C204        C  0.35122631  0.08377460  0.14691404     0.36400
N205        N  0.33179927  0.43441580  0.29785422    -0.38400
N206        N  0.36165718  0.11370184  0.13404955    -0.38400
N207        N  0.39903138  0.42730704  0.18081379    -0.37800
N208        N  0.25740318  0.09862589  0.17839165    -0.37900
C209        C  0.99937778  0.29074219  0.21348682    -0.04500
C210        C  0.03035957  0.30419480  0.17992004    -0.01600
C211        C  0.02990853  0.34033816  0.15443315     0.03400
C212        C  0.00212326  0.36671575  0.16691172    -0.04500
C213        C  0.47603161  0.35660097  0.20601113    -0.01600
C214        C  0.47026037  0.31837848  0.22119095     0.03400
C215        C  0.06371391  0.28188815  0.17235155     0.38000
C216        C  0.45854247  0.38593429  0.23620065     0.38000
C217        C  0.43145742  0.30990212  0.23591616     0.36400
C218        C  0.06086778  0.35266988  0.12020976     0.36400
N219        N  0.39955522  0.30640149  0.24553054    -0.38400
N220        N  0.08589992  0.36348301  0.09407213    -0.38400
N221        N  0.44643443  0.40896908  0.26294688    -0.37800
N222        N  0.09110016  0.26522539  0.16729626    -0.37900
C223        C  0.00519819  0.21264080  0.21500238    -0.04500
C224        C  0.00287959  0.17601299  0.24136189    -0.01600
C225        C  0.00581005  0.14072726  0.21409140     0.03400
C226        C  0.01095928  0.13930580  0.15899432    -0.04500
C227        C  0.51191061  0.17538191  0.13224415    -0.01600
C228        C  0.50639667  0.21024281  0.15887458     0.03400
C229        C  0.99730389  0.17374271  0.29777801     0.38000
C230        C  0.51546965  0.17733540  0.07546273     0.38000
C231        C  0.49593683  0.24170657  0.12623053     0.36400
C232        C  0.00387344  0.10561136  0.24381343     0.36400
N233        N  0.48746326  0.26585465  0.09843810    -0.38400
N234        N  0.00242833  0.07764013  0.26769080    -0.38400
N235        N  0.51800514  0.17903805  0.03029599    -0.37800
N236        N  0.99324922  0.17156593  0.34272158    -0.37900
C237        C  0.08529414  0.34805880  0.97310901    -0.04500
C238        C  0.12394301  0.35050872  0.95720240    -0.01600
C239        C  0.14616259  0.31885761  0.96216538     0.03400
C240        C  0.13274378  0.28877977  0.99421024    -0.04500
C241        C  0.09421383  0.28430894  0.00521266    -0.01600
C242        C  0.06968856  0.31241446  0.98957151     0.03400
C243        C  0.14294436  0.38605650  0.94325252     0.38000
C244        C  0.08177218  0.25388345  0.03956443     0.38000
C245        C  0.02938739  0.30525600  0.99385642     0.36400
C246        C  0.18447692  0.31944057  0.94096207     0.36400
N247        N  0.99711578  0.29976681  0.99558486    -0.38400
N248        N  0.21490437  0.32018561  0.92381114    -0.38400
N249        N  0.07585822  0.22939290  0.06887999    -0.37800
N250        N  0.15873570  0.41450440  0.93458701    -0.37900
C251        C  0.28944870  0.36799840  0.07992440    -0.04500
C252        C  0.32199737  0.36300067  0.10894124    -0.01600
C253        C  0.35457732  0.38315271  0.09263695     0.03400
C254        C  0.35137017  0.41489749  0.05877506    -0.04500
C255        C  0.31487508  0.42750217  0.04654019    -0.01600
C256        C  0.28422416  0.40218013  0.05339546     0.03400
C257        C  0.32425344  0.33030455  0.14348670     0.38000
C258        C  0.30896064  0.46356589  0.02099823     0.38000
C259        C  0.24952197  0.40819104  0.02629425     0.36400
C260        C  0.39062041  0.36742470  0.10489921     0.36400
N261        N  0.22190889  0.41240088  0.00416248    -0.38400
N262        N  0.41873621  0.35335960  0.11418259    -0.38400
N263        N  0.30407170  0.49217171  0.00020677    -0.37800
N264        N  0.32615627  0.30402445  0.17049348    -0.37900
C265        C  0.37313411  0.21421102  0.97421039    -0.04500
C266        C  0.37082752  0.18976729  0.93133766    -0.01600
C267        C  0.39283283  0.15747957  0.93031273     0.03400
C268        C  0.41606865  0.15001867  0.97291791    -0.04500
C269        C  0.42004657  0.17640120  0.01330049    -0.01600
C270        C  0.40221793  0.21099954  0.00985156     0.03400
C271        C  0.34209029  0.19536136  0.89271521     0.38000
C272        C  0.43053121  0.16236393  0.06400906     0.38000
C273        C  0.40617991  0.23922233  0.05002674     0.36400
C274        C  0.38738849  0.12972515  0.88991717     0.36400
N275        N  0.40785368  0.26290312  0.08069391    -0.38400
N276        N  0.38193331  0.10736592  0.85820959    -0.38400
N277        N  0.43623936  0.14788293  0.10362741    -0.37800
N278        N  0.31907827  0.19999862  0.86212099    -0.37900
C279        C  0.15070663  0.07875140  0.02314320    -0.04500
C280        C  0.15170885  0.09413750  0.07359996    -0.01600
C281        C  0.18460303  0.11259846  0.08935529     0.03400
C282        C  0.21466819  0.11653192  0.05306802    -0.04500
C283        C  0.21738661  0.09183248  0.01090961    -0.01600
C284        C  0.18430155  0.07446252  0.99383752     0.03400
C285        C  0.11893214  0.09255901  0.10822366     0.38000
C286        C  0.25198306  0.09003764  0.98008173     0.38000
C287        C  0.18397617  0.05548296  0.94427368     0.36400
C288        C  0.18424117  0.13553649  0.13600401     0.36400
N289        N  0.18300703  0.04010079  0.90486435    -0.38400
N290        N  0.18358256  0.15405002  0.17294422    -0.38400
N291        N  0.27960310  0.08823511  0.95555715    -0.37800
N292        N  0.09346931  0.09133155  0.13709071    -0.37900
C293        C  0.28902115  0.99884164  0.78318150    -0.04500
C294        C  0.29350567  0.49291892  0.83871934    -0.01600
C295        C  0.32961797  0.48907276  0.86051898     0.03400
C296        C  0.36170845  0.00139642  0.83507738    -0.04500
C297        C  0.35988099  0.00818762  0.78086945    -0.01600
C298        C  0.32462450  0.00572349  0.75492893     0.03400
C299        C  0.26198812  0.48708564  0.87456955     0.38000
C300        C  0.39450460  0.01223124  0.75011682     0.38000
C301        C  0.32615093  0.00709682  0.69816696     0.36400
C302        C  0.33409710  0.45927807  0.89895255     0.36400
N303        N  0.32870293  0.00794292  0.65303669    -0.38400
N304        N  0.33880166  0.43320303  0.92539491    -0.38400
N305        N  0.42173584  0.01423464  0.72447862    -0.37800
N306        N  0.23863872  0.48147653  0.90610543    -0.37900
C307        C  0.21070350  0.99467526  0.78519324    -0.04500
C308        C  0.19573980  0.45967186  0.80619023    -0.01600
C309        C  0.15661960  0.45415732  0.81926601     0.03400
C310        C  0.13147074  0.98415341  0.82242276    -0.04500
C311        C  0.14557982  0.01953383  0.80515614    -0.01600
C312        C  0.18415282  0.02536454  0.78856230     0.03400
C313        C  0.21932154  0.42749827  0.81537931     0.38000
C314        C  0.12036001  0.05128238  0.80847308     0.38000
C315        C  0.19503519  0.06487239  0.78400452     0.36400
C316        C  0.14096983  0.41604615  0.82407555     0.36400
N317        N  0.19961156  0.09737388  0.78307875    -0.38400
N318        N  0.12948622  0.38516822  0.82640501    -0.38400
N319        N  0.10032288  0.07643098  0.81152699    -0.37800
N320        N  0.23681075  0.40123636  0.82467393    -0.37900
C321        C  0.99248724  0.21278539  0.78714630    -0.04500
C322        C  0.01978913  0.20794169  0.82711121    -0.01600
C323        C  0.02645114  0.17170452  0.84998421     0.03400
C324        C  0.00543569  0.13851328  0.83591092    -0.04500
C325        C  0.47607924  0.14380794  0.80044228    -0.01600
C326        C  0.46709007  0.18054798  0.78171113     0.03400
C327        C  0.04132700  0.23983384  0.84678852     0.34000
C328        C  0.45323672  0.11174528  0.78474712     0.38000
C329        C  0.42781067  0.18494833  0.76952509     0.36400
C330        C  0.05705281  0.16856429  0.88637085     0.36400
N331        N  0.39582736  0.18657560  0.76234886    -0.38400
N332        N  0.08107889  0.16539721  0.91577007    -0.38400
N333        N  0.43465142  0.08659921  0.77131655    -0.37800
N334        N  0.05854083  0.26409759  0.86565618    -0.37900
C335        C  0.99393335  0.28764981  0.78464445    -0.04500
C336        C  0.46473440  0.29391823  0.82281507    -0.01600
C337        C  0.45962777  0.33012919  0.84595134     0.03400
C338        C  0.98483962  0.36115722  0.83605872    -0.04500
C339        C  0.01533497  0.35476895  0.80156294    -0.01600
C340        C  0.02200358  0.31812891  0.78097280     0.03400
C341        C  0.43843549  0.26391214  0.83860454     0.38000
C342        C  0.04087427  0.38606272  0.78758972     0.38000
C343        C  0.06117565  0.31159048  0.76805686     0.36400
C344        C  0.42524024  0.33726343  0.87518107     0.36400
N345        N  0.09312517  0.30813497  0.76038770    -0.38400
N346        N  0.39764435  0.34462814  0.89704467    -0.38400
N347        N  0.06053953  0.41130915  0.77523206    -0.37800
N348        N  0.41684749  0.24102393  0.85334540    -0.37900
C349        C  0.38291974  0.23595453  0.66087591    -0.04500
C350        C  0.41553646  0.21558024  0.64595785    -0.01600
C351        C  0.45099362  0.22093294  0.67153036     0.03400
C352        C  0.45659903  0.24892203  0.71114729    -0.04500
C353        C  0.42459587  0.27288650  0.71809245    -0.01600
C354        C  0.38791381  0.26184825  0.70145083     0.03400
C355        C  0.41196254  0.18608573  0.60724817     0.38000
C356        C  0.42902121  0.31284749  0.72795409     0.38000
C357        C  0.35531247  0.27484490  0.73001424     0.36400
C358        C  0.48091660  0.19608113  0.65702881     0.36400
N359        N  0.32910137  0.28348925  0.75421144    -0.38400
N360        N  0.50367391  0.17539681  0.64361620    -0.38400
N361        N  0.43139273  0.34517718  0.73380844    -0.37800
N362        N  0.40894401  0.16269579  0.57630127    -0.37900
C363        C  0.10690520  0.25870223  0.66024414    -0.04500
C364        C  0.07573657  0.28085911  0.64556259    -0.01600
C365        C  0.03945919  0.27693909  0.67145106     0.03400
C366        C  0.03181786  0.24916051  0.71188481    -0.04500
C367        C  0.06249569  0.22366794  0.71936766    -0.01600
C368        C  0.09990790  0.23253456  0.70125092     0.03400
C369        C  0.08206168  0.31074517  0.60694728     0.38000
C370        C  0.05628323  0.18409239  0.73186420     0.38000
C371        C  0.13107219  0.21468459  0.72646985     0.36400
C372        C  0.01092562  0.30336803  0.65751072     0.36400
N373        N  0.15577960  0.20115464  0.74799667    -0.38400
N374        N  0.98901902  0.32525819  0.64564046    -0.38400
N375        N  0.05344309  0.15185727  0.73926295    -0.37800
N376        N  0.08812180  0.33439375  0.57614202    -0.37900
C377        C  0.24215840  0.10867379  0.66256339    -0.04500
C378        C  0.26637173  0.10620793  0.70547055    -0.01600
C379        C  0.26820673  0.07185662  0.73564032     0.03400
C380        C  0.25211371  0.03599844  0.71723307    -0.04500
C381        C  0.23569657  0.03913999  0.66744691    -0.01600
C382        C  0.22440706  0.07436475  0.64728314     0.03400
C383        C  0.28884551  0.13915947  0.71983006     0.38000
C384        C  0.24338097  0.01115550  0.62893784     0.38000
C385        C  0.19349110  0.07462757  0.61139170     0.36400
C386        C  0.28279629  0.07626928  0.78792833     0.36400
N387        N  0.16799712  0.07538504  0.58404584    -0.38400
N388        N  0.29409060  0.08101968  0.82950302    -0.38400
N389        N  0.25120603  0.48964774  0.59901562    -0.37800
N390        N  0.30713365  0.16522280  0.73112792    -0.37900
C391        C  0.24867481  0.38269546  0.66644920    -0.04500
C392        C  0.21836258  0.40765077  0.66472330    -0.01600
C393        C  0.21943701  0.44359848  0.69045406     0.03400
C394        C  0.25173239  0.45696005  0.71969430    -0.04500
C395        C  0.28041130  0.42794154  0.72464174    -0.01600
C396        C  0.27952932  0.39364310  0.69590735     0.03400
C397        C  0.18532762  0.39575989  0.63622493     0.38000
C398        C  0.30934711  0.42717794  0.76366643     0.38000
C399        C  0.31194296  0.36937693  0.69571607     0.36400
C400        C  0.18573986  0.46581927  0.68718492     0.36400
N401        N  0.33889831  0.35184233  0.69454253    -0.38400
N402        N  0.15862934  0.48302189  0.68372109    -0.38400
N403        N  0.33344292  0.42234114  0.79253334    -0.37800
N404        N  0.15912496  0.38587620  0.61345971    -0.37900
C405        C  0.34176028  0.10330895  0.47039634    -0.04500
C406        C  0.32942787  0.06735810  0.48980449    -0.01600
C407        C  0.35369503  0.03674734  0.48750562     0.03400
C408        C  0.38879107  0.04113497  0.46171960    -0.04500
C409        C  0.39769102  0.07444255  0.43332853    -0.01600
C410        C  0.37641288  0.10658607  0.44186007     0.03400
C411        C  0.29353736  0.06275678  0.51684585     0.38000
C412        C  0.43160190  0.07661033  0.40058801     0.38000
C413        C  0.39199525  0.14285553  0.42384373     0.36400
C414        C  0.34438961  0.00227501  0.51619818     0.36400
N415        N  0.40538468  0.17138751  0.40962120    -0.38400
N416        N  0.33689441  0.97482723  0.53935405    -0.38400
N417        N  0.45859430  0.07805420  0.37448115    -0.37800
N418        N  0.26444085  0.06043765  0.53766450    -0.37900
C419        C  0.09754593  0.16207981  0.54147249    -0.04500
C420        C  0.06485008  0.15909762  0.51137874    -0.01600
C421        C  0.03300380  0.14007984  0.53261387     0.03400
C422        C  0.03856151  0.11401890  0.57347410    -0.04500
C423        C  0.06872588  0.12027535  0.60744677    -0.01600
C424        C  0.09774534  0.14600731  0.59220738     0.03400
C425        C  0.06853124  0.16056073  0.45495925     0.38000
C426        C  0.07370126  0.09468595  0.65129313     0.38000
C427        C  0.12999740  0.15147827  0.62506087     0.36400
C428        C  0.99849709  0.13881524  0.50346387     0.36400
N429        N  0.15597984  0.15533385  0.65106249    -0.38400
N430        N  0.97098515  0.13806225  0.48010714    -0.38400
N431        N  0.07811842  0.07391448  0.68572545    -0.37800
N432        N  0.07152318  0.15766694  0.41010828    -0.37900
C433        C  0.16237018  0.39525450  0.46513550    -0.04500
C434        C  0.13166574  0.39639635  0.43103234    -0.01600
C435        C  0.11697288  0.43146746  0.41798550     0.03400
C436        C  0.12575081  0.46211016  0.45039548    -0.04500
C437        C  0.16115311  0.46337555  0.47320783    -0.01600
C438        C  0.17913256  0.42958641  0.48244980     0.03400
C439        C  0.11210352  0.36223461  0.41504264     0.38000
C440        C  0.17720005  0.49835758  0.49187637     0.38000
C441        C  0.21275519  0.43011488  0.51353554     0.36400
C442        C  0.08561421  0.43394339  0.38296126     0.36400
N443        N  0.23987551  0.42900045  0.53757327    -0.38400
N444        N  0.06019789  0.43550558  0.35557856    -0.38400
N445        N  0.19109912  0.52620472  0.50576090    -0.37800
N446        N  0.09510028  0.33520046  0.40452256    -0.37900
C447        C  0.45909616  0.38055171  0.54554568    -0.04500
C448        C  0.42788889  0.39312852  0.57428015    -0.01600
C449        C  0.39422666  0.37207877  0.57157696     0.03400
C450        C  0.39480260  0.33587589  0.54875752    -0.04500
C451        C  0.43028468  0.31882774  0.53949807    -0.01600
C452        C  0.46244306  0.34223763  0.53492825     0.03400
C453        C  0.42872984  0.43079540  0.59612834     0.38000
C454        C  0.43399913  0.27901508  0.52804649     0.38000
C455        C  0.49750562  0.32810385  0.51384879     0.36400
C456        C  0.35934335  0.38987332  0.58563874     0.36400
N457        N  0.52545745  0.31669281  0.49722867    -0.38400
N458        N  0.33146019  0.40466042  0.59517660    -0.38400
N459        N  0.43740665  0.24745608  0.51829918    -0.37800
N460        N  0.42955955  0.46087261  0.61330597    -0.37900
C461        C  0.11670288  0.26014134  0.32861639    -0.04500
C462        C  0.10315010  0.29210606  0.30151517    -0.01600
C463        C  0.06386272  0.29279359  0.28692105     0.03400
C464        C  0.04146422  0.25743236  0.28133855    -0.04500
C465        C  0.06303425  0.22612758  0.29829729    -0.01600
C466        C  0.08799769  0.23281478  0.33953894     0.03400
C467        C  0.12767610  0.32513080  0.29357612     0.38000
C468        C  0.07951591  0.20269847  0.25837925     0.38000
C469        C  0.07019015  0.23691307  0.39038462     0.36400
C470        C  0.04789080  0.32994479  0.28484200     0.36400
N471        N  0.05604771  0.24177342  0.43081092    -0.38400
N472        N  0.03693530  0.36040229  0.28558617    -0.38400
N473        N  0.09327316  0.18426909  0.22658371    -0.37800
N474        N  0.14702865  0.35163433  0.28687862    -0.37900
C475        C  0.38925011  0.24650641  0.33727430    -0.04500
C476        C  0.42053267  0.26797043  0.35529228    -0.01600
C477        C  0.45736198  0.26617800  0.33154980     0.03400
C478        C  0.46364505  0.24712699  0.28304537    -0.04500
C479        C  0.42974001  0.22875589  0.26279270    -0.01600
C480        C  0.39466920  0.22615525  0.29136847     0.03400
C481        C  0.41345176  0.29644452  0.39420319     0.38000
C482        C  0.42683060  0.21793500  0.20894814     0.38000
C483        C  0.36275891  0.20510833  0.27051265     0.36400
C484        C  0.48714888  0.28682013  0.35712718     0.36400
N485        N  0.33747181  0.18869384  0.25303140    -0.38400
N486        N  0.50896061  0.30392737  0.38080874    -0.38400
N487        N  0.42098409  0.20933725  0.16649472    -0.37800
N488        N  0.40731123  0.32032710  0.42327368    -0.37900
C489        C  0.25772409  0.39151748  0.33922818    -0.04500
C490        C  0.26095438  0.42776052  0.36340730    -0.01600
C491        C  0.25175930  0.46205861  0.33714818     0.03400
C492        C  0.24842417  0.46390189  0.28152906    -0.04500
C493        C  0.24725523  0.42732886  0.25668996    -0.01600
C494        C  0.24972025  0.39229450  0.28518912     0.03400
C495        C  0.27896798  0.43160876  0.41343331     0.38000
C496        C  0.24669044  0.42496698  0.20040487     0.38000
C497        C  0.24657765  0.35704225  0.25707829     0.36400
C498        C  0.24468603  0.49419690  0.36999377     0.36400
N499        N  0.24402268  0.32913037  0.23419834    -0.38400
N500        N  0.24133526  0.01900297  0.39862731    -0.38400
N501        N  0.24654424  0.42251831  0.15547723    -0.37800
N502        N  0.29482193  0.43511650  0.45215377    -0.37900
C503        C  0.24401923  0.04229571  0.27907538    -0.04500
C504        C  0.27574118  0.05946851  0.30554694    -0.01600
C505        C  0.27453134  0.09690801  0.32571737     0.03400
C506        C  0.24050362  0.11588285  0.33167591    -0.04500
C507        C  0.20845252  0.09884143  0.31048327    -0.01600
C508        C  0.21158066  0.06682818  0.27769659     0.03400
C509        C  0.31063695  0.03991764  0.31299555     0.38000
C510        C  0.17217030  0.11609733  0.31905228     0.38000
C511        C  0.18370418  0.06620650  0.23747083     0.36400
C512        C  0.30902588  0.11709333  0.33762962     0.36400
N513        N  0.16060061  0.06782661  0.20643651    -0.38400
N514        N  0.33664988  0.13405100  0.34436858    -0.38400
N515        N  0.14311247  0.12940527  0.32599286    -0.37800
N516        N  0.33917594  0.02605749  0.32063477    -0.37900
O517        O  0.24741393  0.68337006  0.35014543    -0.79300
O518        O  0.24139195  0.67889758  0.64877480    -0.80900
O519        O  0.28266263  0.63358459  0.48351755    -0.77900
O520        O  0.16257945  0.66151520  0.51760244    -0.76300
O521        O  0.12935653  0.71531645  0.50717971    -0.78100
O522        O  0.33720524  0.66796973  0.48916313    -0.79000
O523        O  0.23369948  0.63876226  0.58007457    -0.80300
O524        O  0.22687561  0.64168882  0.41509252    -0.80600
Eu525      Eu  0.23008687  0.67518505  0.49792640     2.39200
O526        O  0.20229544  0.71983935  0.55176697    -0.88100
O527        O  0.27539035  0.70609415  0.44318594    -0.91700
C528        C  0.23784979  0.64941152  0.36771464     1.03000
C529        C  0.23827200  0.64487286  0.62923428     1.02800
C530        C  0.31879654  0.63686833  0.48211088     1.02700
C531        C  0.13206276  0.68058558  0.51969375     1.00600
H532        H  0.28806431  0.68458518  0.57272046     0.30300
O533        O  0.27444019  0.70324273  0.55356292    -1.00500
H534        H  0.18559667  0.70652949  0.41989506     0.30400
O535        O  0.20424101  0.71971163  0.44029179    -1.03000
O536        O  0.24777560  0.81413543  0.64869216    -0.80300
O537        O  0.25396994  0.82073412  0.35148466    -0.79800
O538        O  0.35319590  0.72686794  0.57974815    -0.78200
O539        O  0.13961167  0.76708580  0.57742931    -0.81600
O540        O  0.14300905  0.76463934  0.41184426    -0.79400
O541        O  0.35815349  0.73863706  0.41894597    -0.78100
O542        O  0.33135085  0.83718281  0.52042618    -0.79600
O543        O  0.21615503  0.86103516  0.48031651    -0.81500
O544        O  0.36184414  0.78207346  0.52330402    -0.78300
O545        O  0.15947888  0.83033823  0.48460390    -0.81000
O546        O  0.31344916  0.74242610  0.64702905    -0.76700
O547        O  0.31984201  0.74850954  0.34937369    -0.76700
O548        O  0.18532722  0.75706874  0.34425856    -0.76400
O549        O  0.17666558  0.75167854  0.64610494    -0.79900
O550        O  0.25711700  0.85656389  0.58086470    -0.79300
O551        O  0.27027975  0.85832758  0.41937536    -0.77600
Eu552      Eu  0.24530205  0.74680416  0.61164821     2.39800
Eu553      Eu  0.25109609  0.75126765  0.38457199     2.39600
Eu554      Eu  0.31946146  0.73307204  0.49851274     2.38400
Eu555      Eu  0.17577778  0.76433535  0.49520531     2.39900
Eu556      Eu  0.26590553  0.82095011  0.50050358     2.39800
O557        O  0.22308914  0.79310603  0.44354205    -0.92000
O558        O  0.29101496  0.77569600  0.55508659    -0.90900
C559        C  0.25081419  0.84865804  0.62950596     1.03100
C560        C  0.26137991  0.85417618  0.37117209     1.01900
C561        C  0.34703997  0.73406665  0.62826676     1.01300
C562        C  0.14395810  0.75998252  0.62639593     1.03300
C563        C  0.15093125  0.76110029  0.36283129     1.02200
C564        C  0.35317868  0.74448290  0.36991596     1.01000
C565        C  0.36040880  0.81748209  0.53020372     1.01100
C566        C  0.18049582  0.86007068  0.47712750     1.03700
H567        H  0.31498125  0.79449565  0.42456281     0.31100
O568        O  0.29544493  0.77982786  0.44285536    -1.04200
H569        H  0.20383449  0.80997026  0.57237999     0.33100
O570        O  0.21827589  0.79173926  0.55342173    -1.06700
N571        N  0.53732582  0.94139982  0.48140072    -0.35800
N572        N  0.46069815  0.46794749  0.48106195    -0.56300
N573        N  0.47901543  0.53748825  0.52010987    -0.35800
N574        N  0.05674539  0.51831481  0.52809148    -0.56300
C575        C  0.51672518  0.91753486  0.51184201     0.27800
C576        C  0.07113572  0.94453714  0.50334093     0.27800
C577        C  0.44129249  0.53866458  0.51966935     0.27800
C578        C  0.99112596  0.56288958  0.55505334     0.27800
C579        C  0.45840271  0.93217736  0.46959686     0.36400
C580        C  0.42861716  0.48334358  0.46620779     0.36400
C581        C  0.08820412  0.00910160  0.50019983     0.36400
C582        C  0.05746506  0.55591669  0.53135362     0.36400
C583        C  0.53780458  0.90517430  0.55347217    -0.21100
C584        C  0.07293140  0.92263807  0.54807000    -0.21100
C585        C  0.42885045  0.56506215  0.55526362    -0.21100
C586        C  0.96059527  0.57995564  0.57856341    -0.21100
C587        C  0.42313479  0.92401856  0.44937887    -0.22100
C588        C  0.40393640  0.45553999  0.44879914    -0.22100
C589        C  0.10665754  0.04124009  0.48208551    -0.22100
C590        C  0.08819693  0.57091166  0.50278348    -0.22100
C591        C  0.47906487  0.90889185  0.50250578    -0.17500
C592        C  0.09662029  0.97263457  0.48711202    -0.17500
C593        C  0.02866918  0.57600132  0.55639137    -0.17500
C594        C  0.41890544  0.51921483  0.48338655    -0.17500
H595        H  0.52840392  0.88690808  0.58559658     0.15400
H596        H  0.09596596  0.92146409  0.57492816     0.15400
H597        H  0.40015409  0.57337057  0.56263786     0.15400
H598        H  0.96135072  0.60278244  0.60627762     0.15400
H599        H  0.40944303  0.89648351  0.44688036     0.13700
H600        H  0.37492214  0.45879228  0.43795846     0.13700
H601        H  0.12911526  0.04398128  0.45303566     0.13700
H602        H  0.09716716  0.59942005  0.49626652     0.13700
H603        H  0.52894877  0.95590639  0.44803574     0.27000
H604        H  0.49559104  0.52544897  0.49101793     0.27000
O605        O  0.99149527  0.93071931  0.84911629    -0.79300
O606        O  0.99865391  0.93546386  0.15046400    -0.80900
O607        O  0.02791508  0.88021378  0.98546118    -0.77900
O608        O  0.41450402  0.91125857  0.02289574    -0.76300
O609        O  0.38493532  0.96715286  0.02707101    -0.78100
O610        O  0.08236593  0.91444455  0.98603964    -0.79000
O611        O  0.98955438  0.89332592  0.08397385    -0.80300
O612        O  0.97565785  0.89101114  0.91798037    -0.80600
Eu613      Eu  0.98028857  0.92618893  0.00008253     2.39200
O614        O  0.45577685  0.97340526  0.05344627    -0.88100
O615        O  0.02349944  0.95374615  0.93974919    -0.91700
C616        C  0.98340432  0.89712538  0.86897837     1.03000
C617        C  0.99622654  0.90119840  0.13210377     1.02800
C618        C  0.06384312  0.88313818  0.98195884     1.02700
C619        C  0.38610427  0.93151522  0.03468569     1.00600
H620        H  0.04157373  0.93757118  0.07025571     0.30300
O621        O  0.02677259  0.95540073  0.05139563    -1.00500
H622        H  0.43271231  0.95557218  0.92542145     0.30400
O623        O  0.45224627  0.96954750  0.94312938    -1.03000
O624        O  0.00606934  0.56815932  0.14818427    -0.80300
O625        O  0.00184097  0.56818110  0.84864050    -0.79800
O626        O  0.10624719  0.97736860  0.07127254    -0.78200
O627        O  0.39300497  0.02815091  0.07873575    -0.81600
O628        O  0.39282081  0.51316774  0.91543807    -0.79400
O629        O  0.10390039  0.47591668  0.90686155    -0.78100
O630        O  0.08652627  0.58348257  0.00605351    -0.79600
O631        O  0.47182429  0.61658262  0.98432309    -0.81500
O632        O  0.11640222  0.52775855  0.99611895    -0.78300
O633        O  0.41557237  0.58405798  0.98189041    -0.81000
O634        O  0.07008523  0.99682417  0.14002032    -0.76700
O635        O  0.06370943  0.49064665  0.84115502    -0.76700
O636        O  0.43215581  0.50191022  0.84571771    -0.76400
O637        O  0.43219160  0.00834044  0.14341111    -0.79900
O638        O  0.51851138  0.60575914  0.07733935    -0.79300
O639        O  0.52194515  0.60660693  0.91434257    -0.77600
Eu640      Eu  0.00100217  0.00141929  0.10940864     2.39800
Eu641      Eu  0.99801872  0.49852898  0.88260444     2.39600
Eu642      Eu  0.06977125  0.48029000  0.99089868     2.38400
Eu643      Eu  0.42811711  0.51728774  0.99699527     2.39900
Eu644      Eu  0.01949692  0.57087072  0.99496724     2.39800
O645        O  0.47427454  0.54339453  0.94124203    -0.92000
O646        O  0.04612711  0.52589897  0.04823718    -0.90900
C647        C  0.51199429  0.60185169  0.12677656     1.03100
C648        C  0.01091513  0.60167659  0.86728942     1.01900
C649        C  0.10266055  0.98700790  0.11953746     1.01300
C650        C  0.39923028  0.01889798  0.12652830     1.03300
C651        C  0.39866886  0.50657759  0.86640062     1.02200
C652        C  0.09701984  0.48227980  0.85835872     1.01000
C653        C  0.11565764  0.56268388  0.00641604     1.01100
C654        C  0.43611457  0.61452389  0.97887599     1.03700
H655        H  0.06450955  0.53972121  0.91548840     0.31100
O656        O  0.04495343  0.52702085  0.93638443    -1.04200
H657        H  0.46044648  0.56456687  0.07061844     0.33100
O658        O  0.47311913  0.54514831  0.05146744    -1.06700
N659        N  0.22210898  0.79042685  0.04524339    -0.35800
N660        N  0.19847209  0.71519156  0.04133157    -0.56300
N661        N  0.27680847  0.69882829  0.01609214    -0.35800
N662        N  0.29782003  0.77416092  0.02282265    -0.56300
C663        C  0.18558408  0.78997332  0.05815061     0.27800
C664        C  0.23844948  0.81948105  0.06957142     0.27800
C665        C  0.26410043  0.66657892  0.03899175     0.27800
C666        C  0.31433733  0.69747600  0.01437012     0.27800
C667        C  0.16862560  0.73120987  0.01984125     0.36400
C668        C  0.19887213  0.67997969  0.02385810     0.36400
C669        C  0.29917168  0.81185316  0.02411172     0.36400
C670        C  0.32764211  0.76345754  0.99427515     0.36400
C671        C  0.17770165  0.81919236  0.09151788    -0.21100
C672        C  0.21184875  0.83739669  0.10031038    -0.21100
C673        C  0.29367548  0.64442767  0.05309684    -0.21100
C674        C  0.32570235  0.66367140  0.03613685    -0.21100
C675        C  0.14922655  0.70592290  0.98913169    -0.22100
C676        C  0.16808302  0.67252728  0.99276917    -0.22100
C677        C  0.33088546  0.82553443  0.99647080    -0.22100
C678        C  0.34903394  0.79440223  0.97758276    -0.22100
C679        C  0.16028593  0.76864803  0.02939356    -0.17500
C680        C  0.27504073  0.83234189  0.05711880    -0.17500
C681        C  0.33739034  0.72573654  0.99065239    -0.17500
C682        C  0.22659533  0.65507496  0.03880406    -0.17500
H683        H  0.15035983  0.82707971  0.10631370     0.15400
H684        H  0.21587196  0.86245971  0.12316137     0.15400
H685        H  0.29215787  0.61635793  0.07029445     0.15400
H686        H  0.35369993  0.65337748  0.03929975     0.15400
H687        H  0.12448781  0.71126496  0.96674969     0.13700
H688        H  0.16110664  0.64673074  0.97268304     0.13700
H689        H  0.34034857  0.85458274  0.99131417     0.13700
H690        H  0.37583229  0.79392364  0.95706457     0.13700
H691        H  0.23304517  0.77563067  0.01376281     0.27000
H692        H  0.26090842  0.71825774  0.99580789     0.27000
C693        C  0.00228870  0.75240157  0.24663362    -0.01700
C694        C  0.24834667  0.50262621  0.24661677    -0.01700
C695        C  0.99395433  0.74988668  0.74824549    -0.01700
C696        C  0.25111582  0.49720981  0.75255310    -0.01700
C697        C  0.21075472  0.99641626  0.21099003    -0.04500
C698        C  0.21005075  0.49840029  0.15478827    -0.01600
C699        C  0.17606870  0.49238247  0.12615596     0.03400
C700        C  0.13969814  0.98788386  0.15141028    -0.04500
C701        C  0.14006308  0.98359175  0.20636258    -0.01600
C702        C  0.17433594  0.98681260  0.23538967     0.03400
C703        C  0.24357649  0.50627140  0.12348102     0.38000
C704        C  0.10452063  0.97584463  0.23355171     0.38000
C705        C  0.17021543  0.98540054  0.29182330     0.36400
C706        C  0.17965264  0.48918898  0.06977161     0.36400
N707        N  0.16564557  0.98508719  0.33668379    -0.38400
N708        N  0.18343743  0.48547379  0.02515461    -0.38400
N709        N  0.07559857  0.96991127  0.25398785    -0.37800
N710        N  0.26872451  0.51298868  0.09524190    -0.37900
C711        C  0.28945268  0.00684175  0.21550870    -0.04500
C712        C  0.30149278  0.54129454  0.18801576    -0.01600
C713        C  0.33823457  0.54622755  0.16375483     0.03400
C714        C  0.36407542  0.01697362  0.16203793    -0.04500
C715        C  0.35323394  0.98321061  0.18741246    -0.01600
C716        C  0.31992183  0.97999546  0.21923372     0.03400
C717        C  0.27657830  0.57289904  0.18369927     0.38000
C718        C  0.37776354  0.95146752  0.18225120     0.38000
C719        C  0.32423962  0.95348353  0.26205055     0.36400
C720        C  0.35026350  0.58274658  0.14259174     0.36400
N721        N  0.33156589  0.93257537  0.29517319    -0.38400
N722        N  0.36030407  0.61212802  0.12692941    -0.38400
N723        N  0.39780021  0.92663143  0.17715986    -0.37800
N724        N  0.25790210  0.59896497  0.17951620    -0.37900
C725        C  0.99925518  0.79095971  0.21211330    -0.04500
C726        C  0.03008384  0.80430262  0.17822583    -0.01600
C727        C  0.02994723  0.84074135  0.15356703     0.03400
C728        C  0.00226501  0.86713940  0.16647794    -0.04500
C729        C  0.47590120  0.85702845  0.20557845    -0.01600
C730        C  0.47016792  0.81873145  0.22028269     0.03400
C731        C  0.06330482  0.78186992  0.17028505     0.38000
C732        C  0.45752664  0.88616200  0.23516597     0.38000
C733        C  0.43123160  0.81001327  0.23399128     0.36400
C734        C  0.06137869  0.85341917  0.12035287     0.36400
N735        N  0.39924314  0.80631408  0.24283532    -0.38400
N736        N  0.08696351  0.86434225  0.09533810    -0.38400
N737        N  0.44452853  0.90905199  0.26133465    -0.37800
N738        N  0.09070661  0.76523522  0.16521203    -0.37900
C739        C  0.00470592  0.71284086  0.21386577    -0.04500
C740        C  0.00202269  0.67625663  0.24031362    -0.01600
C741        C  0.00451979  0.64091869  0.21312104     0.03400
C742        C  0.01034190  0.63941571  0.15817081    -0.04500
C743        C  0.51163151  0.67549445  0.13154980    -0.01600
C744        C  0.50607146  0.71042387  0.15805100     0.03400
C745        C  0.99636597  0.67404267  0.29671111     0.38000
C746        C  0.51512698  0.67734418  0.07476024     0.38000
C747        C  0.49511510  0.74175520  0.12555395     0.36400
C748        C  0.00081631  0.60579923  0.24265450     0.36400
N749        N  0.48581616  0.76584036  0.09824945    -0.38400
N750        N  0.99773522  0.57777029  0.26623594    -0.38400
N751        N  0.51774542  0.67906638  0.02960014    -0.37800
N752        N  0.99222697  0.67184330  0.34163931    -0.37900
C753        C  0.08584988  0.84844091  0.97565810    -0.04500
C754        C  0.12468310  0.85111350  0.96079230    -0.01600
C755        C  0.14696407  0.81958907  0.96629405     0.03400
C756        C  0.13331456  0.78931706  0.99784023    -0.04500
C757        C  0.09469413  0.78465744  0.00790527    -0.01600
C758        C  0.07022693  0.81272595  0.99192347     0.03400
C759        C  0.14369470  0.88669741  0.94683954     0.38000
C760        C  0.08191865  0.75346486  0.04065379     0.38000
C761        C  0.02992584  0.80532942  0.99521478     0.36400
C762        C  0.18523188  0.82018372  0.94498358     0.36400
N763        N  0.99767751  0.79965323  0.99611859    -0.38400
N764        N  0.21555911  0.82104647  0.92748306    -0.38400
N765        N  0.07589069  0.72811336  0.06848365    -0.37800
N766        N  0.15946622  0.91513530  0.93796692    -0.37900
C767        C  0.29087756  0.86619212  0.08131920    -0.04500
C768        C  0.32383459  0.86047375  0.10904008    -0.01600
C769        C  0.35626361  0.88062935  0.09224221     0.03400
C770        C  0.35261511  0.91299322  0.05958394    -0.04500
C771        C  0.31600725  0.92609962  0.04912832    -0.01600
C772        C  0.28527758  0.90096482  0.05653307     0.03400
C773        C  0.32626901  0.82723228  0.14250715     0.38000
C774        C  0.31004140  0.96249650  0.02451599     0.38000
C775        C  0.24955298  0.90831992  0.03279190     0.36400
C776        C  0.39242590  0.86444271  0.10272741     0.36400
N777        N  0.22095665  0.91386084  0.01382512    -0.38400
N778        N  0.42063595  0.85003452  0.11039118    -0.38400
N779        N  0.30553395  0.99132447  0.00411406    -0.37800
N780        N  0.32802774  0.80048869  0.16864922    -0.37900
C781        C  0.37414403  0.71442646  0.96981953    -0.04500
C782        C  0.37304204  0.68945069  0.92739911    -0.01600
C783        C  0.39496211  0.65711827  0.92836385     0.03400
C784        C  0.41762316  0.65049099  0.97180044    -0.04500
C785        C  0.42068729  0.67737710  0.01166247    -0.01600
C786        C  0.40243841  0.71172247  0.00694418     0.03400
C787        C  0.34521784  0.69430203  0.88730150     0.38000
C788        C  0.43028301  0.66388174  0.06304568     0.38000
C789        C  0.40483149  0.73984650  0.04750065     0.36400
C790        C  0.38932616  0.62807897  0.88975121     0.36400
N791        N  0.40536930  0.76317224  0.07874539    -0.38400
N792        N  0.38356408  0.60445678  0.85993750    -0.38400
N793        N  0.43533351  0.64983318  0.10316691    -0.37800
N794        N  0.32308535  0.69823589  0.85528722    -0.37900
C795        C  0.15078066  0.57837750  0.02431307    -0.04500
C796        C  0.15211445  0.59480620  0.07407408    -0.01600
C797        C  0.18528976  0.61319578  0.08887406     0.03400
C798        C  0.21507715  0.61638313  0.05197857    -0.04500
C799        C  0.21737632  0.59081358  0.01074538    -0.01600
C800        C  0.18413732  0.57319159  0.99488571     0.03400
C801        C  0.11938348  0.59444426  0.10879787     0.38000
C802        C  0.25175016  0.58785372  0.97971219     0.38000
C803        C  0.18344406  0.55253551  0.94660451     0.36400
C804        C  0.18541603  0.63687492  0.13481076     0.36400
N805        N  0.18190956  0.53553483  0.90853362    -0.38400
N806        N  0.18504804  0.65601014  0.17114074    -0.38400
N807        N  0.27917595  0.58499021  0.95503912    -0.37800
N808        N  0.09393822  0.59426446  0.13768694    -0.37900
C809        C  0.28977937  0.49965124  0.78382314    -0.04500
C810        C  0.29225024  0.99208945  0.83811773    -0.01600
C811        C  0.32815629  0.98811997  0.86052265     0.03400
C812        C  0.36287484  0.50255555  0.83467183    -0.04500
C813        C  0.36065003  0.50926330  0.78052176    -0.01600
C814        C  0.32518796  0.50664928  0.75509335     0.03400
C815        C  0.26031256  0.98663144  0.87340253     0.38000
C816        C  0.39505785  0.51347334  0.74933911     0.38000
C817        C  0.32629506  0.50865773  0.69838895     0.36400
C818        C  0.33196075  0.95858545  0.89950736     0.36400
N819        N  0.32857643  0.51035847  0.65327779    -0.38400
N820        N  0.33581780  0.93260945  0.92646625    -0.38400
N821        N  0.42210274  0.51563607  0.72333286    -0.37800
N822        N  0.23641354  0.98153411  0.90429573    -0.37900
C823        C  0.21140502  0.49546702  0.78682053    -0.04500
C824        C  0.19497002  0.95886926  0.80459859    -0.01600
C825        C  0.15602869  0.95366483  0.81909812     0.03400
C826        C  0.13196497  0.48453319  0.82287151    -0.04500
C827        C  0.14610055  0.52008456  0.80636110    -0.01600
C828        C  0.18471874  0.52608043  0.79005366     0.03400
C829        C  0.21830237  0.92630971  0.81237175     0.38000
C830        C  0.12072593  0.55171202  0.80965897     0.38000
C831        C  0.19538498  0.56563035  0.78531035     0.36400
C832        C  0.14043596  0.91569091  0.82650467     0.36400
N833        N  0.19970146  0.59815719  0.78396737    -0.38400
N834        N  0.12889124  0.88492274  0.83091122    -0.38400
N835        N  0.10052661  0.57673674  0.81258539    -0.37800
N836        N  0.23540682  0.89953463  0.82015680    -0.37900
C837        C  0.99312878  0.71306168  0.78716254    -0.04500
C838        C  0.02059988  0.70850776  0.82698901    -0.01600
C839        C  0.02764599  0.67233096  0.84998378     0.03400
C840        C  0.00677554  0.63893149  0.83634143    -0.04500
C841        C  0.47731670  0.64409347  0.80147835    -0.01600
C842        C  0.46795986  0.68067913  0.78246510     0.03400
C843        C  0.04213556  0.74061730  0.84602618     0.34000
C844        C  0.45463197  0.61176251  0.78644258     0.38000
C845        C  0.42863374  0.68456685  0.77019424     0.36400
C846        C  0.05874146  0.66938884  0.88553552     0.36400
N847        N  0.39663581  0.68570417  0.76287125    -0.38400
N848        N  0.08332464  0.66637679  0.91405986    -0.38400
N849        N  0.43630397  0.58620449  0.77381733    -0.37800
N850        N  0.05938204  0.76513645  0.86423470    -0.37900
C851        C  0.99405375  0.78806731  0.78379784    -0.04500
C852        C  0.46452278  0.79453412  0.82200590    -0.01600
C853        C  0.45934031  0.83068785  0.84524934     0.03400
C854        C  0.98493977  0.86156945  0.83536594    -0.04500
C855        C  0.01544656  0.85524772  0.80095941    -0.01600
C856        C  0.02205059  0.81867580  0.78002265     0.03400
C857        C  0.43791604  0.76471485  0.83714263     0.38000
C858        C  0.04124707  0.88654933  0.78794825     0.38000
C859        C  0.06113979  0.81248739  0.76632038     0.36400
C860        C  0.42510007  0.83789798  0.87478712     0.36400
N861        N  0.09308928  0.80957445  0.75807463    -0.38400
N862        N  0.39781412  0.84572921  0.89705283    -0.38400
N863        N  0.06110439  0.91188528  0.77663820    -0.37800
N864        N  0.41585696  0.74207671  0.85113462    -0.37900
C865        C  0.38300823  0.73502906  0.66135918    -0.04500
C866        C  0.41565517  0.71455164  0.64671995    -0.01600
C867        C  0.45118639  0.72025510  0.67207654     0.03400
C868        C  0.45677606  0.74862738  0.71116898    -0.04500
C869        C  0.42471899  0.77252716  0.71774403    -0.01600
C870        C  0.38804040  0.76111487  0.70166544     0.03400
C871        C  0.41207433  0.68475790  0.60846500     0.38000
C872        C  0.42898095  0.81262847  0.72666628     0.38000
C873        C  0.35560309  0.77372874  0.73091958     0.36400
C874        C  0.48123012  0.69541084  0.65807553     0.36400
N875        N  0.32969370  0.78214476  0.75591068    -0.38400
N876        N  0.50424065  0.67478784  0.64537308    -0.38400
N877        N  0.43117232  0.84503105  0.73185276    -0.37800
N878        N  0.40905508  0.66122283  0.57773047    -0.37900
C879        C  0.10714804  0.75960641  0.65955881    -0.04500
C880        C  0.07570057  0.78129216  0.64465185    -0.01600
C881        C  0.03940060  0.77695484  0.67040289     0.03400
C882        C  0.03211874  0.74942339  0.71129362    -0.04500
C883        C  0.06314540  0.72440178  0.71910052    -0.01600
C884        C  0.10045880  0.73353712  0.70076157     0.03400
C885        C  0.08166389  0.81111009  0.60584086     0.38000
C886        C  0.05745768  0.68489130  0.73227336     0.38000
C887        C  0.13185946  0.71579789  0.72562178     0.36400
C888        C  0.01037237  0.80252930  0.65540041     0.36400
N889        N  0.15676631  0.70230348  0.74674596    -0.38400
N890        N  0.98811769  0.82366771  0.64223075    -0.38400
N891        N  0.05519848  0.65270880  0.74032324    -0.37800
N892        N  0.08738038  0.83471887  0.57487621    -0.37900
C893        C  0.24150000  0.60916727  0.66331938    -0.04500
C894        C  0.26566377  0.60701376  0.70630811    -0.01600
C895        C  0.26819106  0.57262086  0.73629429     0.03400
C896        C  0.25221812  0.53659598  0.71819655    -0.04500
C897        C  0.23552864  0.53951957  0.66856200    -0.01600
C898        C  0.22408057  0.57465869  0.64812760     0.03400
C899        C  0.28717327  0.64047843  0.72118677     0.38000
C900        C  0.24315218  0.51132037  0.63034862     0.38000
C901        C  0.19314554  0.57471176  0.61226945     0.36400
C902        C  0.28386307  0.57707183  0.78794302     0.36400
N903        N  0.16761848  0.57546431  0.58498034    -0.38400
N904        N  0.29633727  0.58190888  0.82882352    -0.38400
N905        N  0.25127904  0.98964541  0.59730771    -0.37800
N906        N  0.30455720  0.66702292  0.73298153    -0.37900
C907        C  0.24840426  0.88287824  0.66447010    -0.04500
C908        C  0.21839162  0.90810389  0.66193176    -0.01600
C909        C  0.21930143  0.94370317  0.68833795     0.03400
C910        C  0.25143150  0.95664711  0.71818887    -0.04500
C911        C  0.28002365  0.92753514  0.72327694    -0.01600
C912        C  0.27903211  0.89331307  0.69455059     0.03400
C913        C  0.18590362  0.89692005  0.63179132     0.38000
C914        C  0.30886897  0.92655316  0.76244227     0.38000
C915        C  0.31105136  0.86848983  0.69488295     0.36400
C916        C  0.18564442  0.96601255  0.68505838     0.36400
N917        N  0.33747943  0.85018091  0.69388619    -0.38400
N918        N  0.15861239  0.98333512  0.68155945    -0.38400
N919        N  0.33288941  0.92164871  0.79141514    -0.37800
N920        N  0.16017061  0.88765844  0.60761669    -0.37900
C921        C  0.34069775  0.60256741  0.47162563    -0.04500
C922        C  0.32769846  0.56684307  0.49117141    -0.01600
C923        C  0.35152709  0.53589664  0.48942279     0.03400
C924        C  0.38652549  0.53950055  0.46329573    -0.04500
C925        C  0.39560353  0.57237061  0.43396035    -0.01600
C926        C  0.37520244  0.60506599  0.44270792     0.03400
C927        C  0.29140792  0.56259629  0.51723939     0.38000
C928        C  0.42890239  0.57352330  0.40006120     0.38000
C929        C  0.39131355  0.64099439  0.42414144     0.36400
C930        C  0.34198991  0.50200075  0.51923235     0.36400
N931        N  0.40481359  0.66933571  0.40932647    -0.38400
N932        N  0.33434386  0.47503502  0.54335727    -0.38400
N933        N  0.45530231  0.57419677  0.37280023    -0.37800
N934        N  0.26194626  0.56030746  0.53702219    -0.37900
C935        C  0.09750126  0.66250397  0.54064194    -0.04500
C936        C  0.06534541  0.66022489  0.50937121    -0.01600
C937        C  0.03287773  0.64171795  0.52939937     0.03400
C938        C  0.03734327  0.61541856  0.57015377    -0.04500
C939        C  0.06680542  0.62098951  0.60530957    -0.01600
C940        C  0.09665604  0.64604351  0.59120551     0.03400
C941        C  0.07017548  0.66161313  0.45307467     0.38000
C942        C  0.06953760  0.59588122  0.65016243     0.38000
C943        C  0.12841710  0.65050686  0.62519825     0.36400
C944        C  0.99878875  0.64114770  0.49935231     0.36400
N945        N  0.15390495  0.65336506  0.65232577    -0.38400
N946        N  0.97153345  0.64093510  0.47544468    -0.38400
N947        N  0.07182093  0.57556195  0.68562805    -0.37800
N948        N  0.07423985  0.65857334  0.40838195    -0.37900
C949        C  0.16399367  0.89615076  0.46317003    -0.04500
C950        C  0.13334917  0.89775715  0.42898275    -0.01600
C951        C  0.11862181  0.93299252  0.41693990     0.03400
C952        C  0.12735060  0.96304873  0.45033092    -0.04500
C953        C  0.16316549  0.96426119  0.47192946    -0.01600
C954        C  0.18113692  0.93036187  0.48049460     0.03400
C955        C  0.11402136  0.86389728  0.41150316     0.38000
C956        C  0.17966652  0.99924241  0.49002218     0.38000
C957        C  0.21523065  0.93073931  0.51060437     0.36400
C958        C  0.08720697  0.93595247  0.38215073     0.36400
N959        N  0.24270721  0.92954925  0.53387106    -0.38400
N960        N  0.06159769  0.93771706  0.35515276    -0.38400
N961        N  0.19378570  0.02715088  0.50335054    -0.37800
N962        N  0.09705852  0.83719509  0.39952461    -0.37900
C963        C  0.45818486  0.88246042  0.53722489    -0.04500
C964        C  0.42715248  0.89588588  0.56570221    -0.01600
C965        C  0.39421347  0.87355127  0.56796872     0.03400
C966        C  0.39513896  0.83639170  0.54847527    -0.04500
C967        C  0.43078195  0.81980600  0.53935209    -0.01600
C968        C  0.46214660  0.84372955  0.53014403     0.03400
C969        C  0.42730559  0.93454005  0.58405003     0.38000
C970        C  0.43524191  0.77950091  0.53301698     0.38000
C971        C  0.49690460  0.82924353  0.50855756     0.36400
C972        C  0.35932386  0.89060941  0.58394333     0.36400
N973        N  0.52470289  0.81768622  0.49164162    -0.38400
N974        N  0.33149227  0.90497176  0.59506461    -0.38400
N975        N  0.43959570  0.74754298  0.52740126    -0.37800
N976        N  0.42727247  0.96533661  0.59862649    -0.37900
C977        C  0.11669078  0.75929974  0.32774820    -0.04500
C978        C  0.10404005  0.79103372  0.29925523    -0.01600
C979        C  0.06483206  0.79241950  0.28439001     0.03400
C980        C  0.04163664  0.75745468  0.27964821    -0.04500
C981        C  0.06253871  0.72593200  0.29738676    -0.01600
C982        C  0.08734225  0.73264473  0.33886967     0.03400
C983        C  0.12941742  0.82327213  0.29020520     0.38000
C984        C  0.07898106  0.70216534  0.25780595     0.38000
C985        C  0.06914298  0.73758202  0.38928367     0.36400
C986        C  0.04978957  0.82995648  0.28139313     0.36400
N987        N  0.05452996  0.74286035  0.42927477    -0.38400
N988        N  0.03959818  0.86070912  0.28130437    -0.38400
N989        N  0.09269587  0.68351520  0.22622855    -0.37800
N990        N  0.14949791  0.84912334  0.28265410    -0.37900
C991        C  0.38974950  0.74723547  0.33738666    -0.04500
C992        C  0.42111610  0.76879454  0.35501635    -0.01600
C993        C  0.45774901  0.76728472  0.33054586     0.03400
C994        C  0.46380484  0.74786191  0.28229311    -0.04500
C995        C  0.42978994  0.72947264  0.26245974    -0.01600
C996        C  0.39487639  0.72696606  0.29137294     0.03400
C997        C  0.41434594  0.79690012  0.39454474     0.38000
C998        C  0.42647420  0.71903245  0.20851659     0.38000
C999        C  0.36272045  0.70616493  0.27077293     0.36400
C1000       C  0.48753895  0.78878875  0.35482435     0.36400
N1001       N  0.33708989  0.69004292  0.25373109    -0.38400
N1002       N  0.50941360  0.80664944  0.37735857    -0.38400
N1003       N  0.42023170  0.71096533  0.16597658    -0.37800
N1004       N  0.40853383  0.82048468  0.42420746    -0.37900
C1005       C  0.25773456  0.89150331  0.33895706    -0.04500
C1006       C  0.26187062  0.92771292  0.36301458    -0.01600
C1007       C  0.25248937  0.96213602  0.33718370     0.03400
C1008       C  0.24837513  0.96407394  0.28167487    -0.04500
C1009       C  0.24668820  0.92752299  0.25682536    -0.01600
C1010       C  0.24900610  0.89242884  0.28518422     0.03400
C1011       C  0.28143276  0.93131859  0.41191815     0.38000
C1012       C  0.24621201  0.92526086  0.20055220     0.38000
C1013       C  0.24525755  0.85726452  0.25702521     0.36400
C1014       C  0.24649542  0.99433072  0.37033121     0.36400
N1015       N  0.24225433  0.82946198  0.23399066    -0.38400
N1016       N  0.23837195  0.51879011  0.39795504    -0.38400
N1017       N  0.24624628  0.92306818  0.15560347    -0.37800
N1018       N  0.29854147  0.93448330  0.44963622    -0.37900
C1019       C  0.24428419  0.54204394  0.27933118    -0.04500
C1020       C  0.27603270  0.55917113  0.30592111    -0.01600
C1021       C  0.27469938  0.59648362  0.32654291     0.03400
C1022       C  0.24063658  0.61529614  0.33280371    -0.04500
C1023       C  0.20858377  0.59817396  0.31174468    -0.01600
C1024       C  0.21175903  0.56642244  0.27847276     0.03400
C1025       C  0.31127899  0.54008691  0.31242932     0.38000
C1026       C  0.17229688  0.61525629  0.32077890     0.38000
C1027       C  0.18417042  0.56625242  0.23787655     0.36400
C1028       C  0.30907723  0.61691979  0.33830657     0.36400
N1029       N  0.16144472  0.56827791  0.20635815    -0.38400
N1030       N  0.33643663  0.63434578  0.34487706    -0.38400
N1031       N  0.14331636  0.62858222  0.32826748    -0.37800
N1032       N  0.34035936  0.52706281  0.31907824    -0.37900
O1033       O  0.74709978  0.18371786  0.34946212    -0.79300
O1034       O  0.74193672  0.17839182  0.64844245    -0.80900
O1035       O  0.78310224  0.13344075  0.48203839    -0.77900
O1036       O  0.66252852  0.16111411  0.51695781    -0.76300
O1037       O  0.62909824  0.21477585  0.50646691    -0.78100
O1038       O  0.83728908  0.16821439  0.48931068    -0.79000
O1039       O  0.73438254  0.13840598  0.57947071    -0.80300
O1040       O  0.72665597  0.14173684  0.41409278    -0.80600
Eu1041     Eu  0.73015334  0.17475340  0.49737106     2.39200
O1042       O  0.70235646  0.21917637  0.55181777    -0.88100
O1043       O  0.77527632  0.20595087  0.44273505    -0.91700
C1044       C  0.73756422  0.14969032  0.36673976     1.03000
C1045       C  0.73897682  0.14442560  0.62865855     1.02800
C1046       C  0.81925336  0.13706139  0.48128917     1.02700
C1047       C  0.63191620  0.18007913  0.51910284     1.00600
H1048       H  0.78815545  0.18449766  0.57229507     0.30300
O1049       O  0.77425246  0.20303784  0.55332833    -1.00500
H1050       H  0.68546499  0.20645314  0.41972824     0.30400
O1051       O  0.70414813  0.21950215  0.44021610    -1.03000
O1052       O  0.74776715  0.31376878  0.64981477    -0.80300
O1053       O  0.75404490  0.32067627  0.35165605    -0.79800
O1054       O  0.85294616  0.22804398  0.57945637    -0.78200
O1055       O  0.63932181  0.26582219  0.57774906    -0.81600
O1056       O  0.64333048  0.26513401  0.41214727    -0.79400
O1057       O  0.85745867  0.23797237  0.41850828    -0.78100
O1058       O  0.83106280  0.33760451  0.52071415    -0.79600
O1059       O  0.71535299  0.36083588  0.48130052    -0.81500
O1060       O  0.86109774  0.28226079  0.52234615    -0.78300
O1061       O  0.65895727  0.32960136  0.48657769    -0.81000
O1062       O  0.81321377  0.24273151  0.64713387    -0.76700
O1063       O  0.81934523  0.24798616  0.34882814    -0.76700
O1064       O  0.68538856  0.25756472  0.34429203    -0.76400
O1065       O  0.67646848  0.25088860  0.64651056    -0.79900
O1066       O  0.75717957  0.35642048  0.58228050    -0.79300
O1067       O  0.77010882  0.35823828  0.41970354    -0.77600
Eu1068     Eu  0.74513220  0.24647551  0.61185845     2.39800
Eu1069     Eu  0.75089967  0.25134339  0.38465465     2.39600
Eu1070     Eu  0.81898202  0.23309327  0.49826582     2.38400
Eu1071     Eu  0.67573222  0.26379539  0.49568452     2.39900
Eu1072     Eu  0.76557142  0.32111682  0.50112433     2.39800
O1073       O  0.72289386  0.29295672  0.44411051    -0.92000
O1074       O  0.79061072  0.27550192  0.55512976    -0.90900
C1075       C  0.75098174  0.34841779  0.63097944     1.03100
C1076       C  0.76138253  0.35408112  0.37142370     1.01900
C1077       C  0.84684928  0.23496010  0.62807223     1.01300
C1078       C  0.64370582  0.25891012  0.62675067     1.03300
C1079       C  0.65111750  0.26176684  0.36308397     1.02200
C1080       C  0.85258795  0.24369108  0.36943680     1.01000
C1081       C  0.86002845  0.31759112  0.52976266     1.01100
C1082       C  0.67963355  0.35949817  0.47879162     1.03700
H1083       H  0.81471751  0.29452413  0.42465024     0.31100
O1084       O  0.79508049  0.28004249  0.44302792    -1.04200
H1085       H  0.70361084  0.30969914  0.57315459     0.33100
O1086       O  0.71803047  0.29155159  0.55399420    -1.06700
N1087       N  0.03535027  0.44121101  0.48507453    -0.35800
N1088       N  0.96327367  0.96933896  0.47391741    -0.56300
N1089       N  0.98105727  0.03664806  0.52095611    -0.35800
N1090       N  0.55908470  0.01706148  0.53182755    -0.56300
C1091       C  0.01628148  0.41711741  0.51703555     0.27800
C1092       C  0.56968857  0.44501463  0.50425294     0.27800
C1093       C  0.94333784  0.03823544  0.51913242     0.27800
C1094       C  0.49265159  0.06115795  0.55700898     0.27800
C1095       C  0.95641071  0.43044159  0.47845935     0.36400
C1096       C  0.93117548  0.98531740  0.46049778     0.36400
C1097       C  0.58586367  0.50972306  0.49661557     0.36400
C1098       C  0.55922875  0.05467787  0.53493623     0.36400
C1099       C  0.03908311  0.40524515  0.55708882    -0.21100
C1100       C  0.57323973  0.42392121  0.54944810    -0.21100
C1101       C  0.93046305  0.06359656  0.55591392    -0.21100
C1102       C  0.46180153  0.07774487  0.58037837    -0.21100
C1103       C  0.92126211  0.42143811  0.45849154    -0.22100
C1104       C  0.90623005  0.95817738  0.44191145    -0.22100
C1105       C  0.60509236  0.54153526  0.47888640    -0.22100
C1106       C  0.58937210  0.07018747  0.50570952    -0.22100
C1107       C  0.97853654  0.40762245  0.51011780    -0.17500
C1108       C  0.59442695  0.47293678  0.48539860    -0.17500
C1109       C  0.53012344  0.07443725  0.55967030    -0.17500
C1110       C  0.92127225  0.02020127  0.48099529    -0.17500
H1111       H  0.03115829  0.38687877  0.58978610     0.15400
H1112       H  0.59717791  0.42354941  0.57484529     0.15400
H1113       H  0.90173276  0.07197682  0.56278666     0.15400
H1114       H  0.46215237  0.09989706  0.60913918     0.15400
H1115       H  0.90816056  0.39363536  0.45608560     0.13700
H1116       H  0.87707231  0.96185618  0.43208576     0.13700
H1117       H  0.62827296  0.54377182  0.45088763     0.13700
H1118       H  0.59736668  0.09882107  0.49816301     0.13700
H1119       H  0.02574828  0.45497144  0.45178189     0.27000
H1120       H  0.99823819  0.02525987  0.49200600     0.27000
O1121       O  0.49201922  0.43033334  0.84973675    -0.79300
O1122       O  0.49870388  0.43509034  0.15042349    -0.80900
O1123       O  0.52802355  0.38034127  0.98399023    -0.77900
O1124       O  0.91364449  0.41262797  0.02384016    -0.76300
O1125       O  0.88395392  0.46858898  0.02591154    -0.78100
O1126       O  0.58279549  0.41407603  0.98523962    -0.79000
O1127       O  0.48933088  0.39282291  0.08412101    -0.80300
O1128       O  0.47491143  0.39075321  0.91826975    -0.80600
Eu1129     Eu  0.48000258  0.42598653  0.00028288     2.39200
O1130       O  0.95584194  0.47350154  0.05336597    -0.88100
O1131       O  0.52340287  0.45357117  0.94017472    -0.91700
C1132       C  0.48332512  0.39676785  0.86942150     1.03000
C1133       C  0.49611656  0.40075389  0.13224226     1.02800
C1134       C  0.56399780  0.38301914  0.98028398     1.02700
C1135       C  0.88505638  0.43305103  0.03448044     1.00600
H1136       H  0.54145984  0.43702433  0.07033195     0.30300
O1137       O  0.52673179  0.45494039  0.05151545    -1.00500
H1138       H  0.93296298  0.45601659  0.92521153     0.30400
O1139       O  0.95257476  0.46974496  0.94310927    -1.03000
O1140       O  0.50619677  0.06825472  0.14842773    -0.80300
O1141       O  0.50066400  0.06770723  0.84763059    -0.79800
O1142       O  0.60650276  0.47655713  0.07124198    -0.78200
O1143       O  0.89330381  0.52776646  0.07867105    -0.81600
O1144       O  0.89163017  0.01194034  0.91600703    -0.79400
O1145       O  0.60354959  0.97575212  0.90650265    -0.78100
O1146       O  0.58614815  0.08356256  0.00504946    -0.79600
O1147       O  0.97044810  0.11619457  0.98464039    -0.81500
O1148       O  0.61653611  0.02835168  0.99276940    -0.78300
O1149       O  0.91434322  0.08343290  0.98134364    -0.81000
O1150       O  0.57040475  0.49680889  0.13959086    -0.76700
O1151       O  0.56317410  0.99054820  0.84102818    -0.76700
O1152       O  0.93115441  0.00127527  0.84627417    -0.76400
O1153       O  0.93226558  0.50780575  0.14348941    -0.79900
O1154       O  0.01802926  0.10559478  0.07780286    -0.79300
O1155       O  0.01940241  0.10621781  0.91408212    -0.77600
Eu1156     Eu  0.50120479  0.50122492  0.10941138     2.39800
Eu1157     Eu  0.49737913  0.99846641  0.88247098     2.39600
Eu1158     Eu  0.56966222  0.98077908  0.99052155     2.38400
Eu1159     Eu  0.92751172  0.01684552  0.99710641     2.39900
Eu1160     Eu  0.51887143  0.07097153  0.99486165     2.39800
O1161       O  0.97361010  0.04309679  0.94146602    -0.92000
O1162       O  0.54598659  0.02630978  0.04806547    -0.90900
C1163       C  0.01203204  0.10167554  0.12738017     1.03100
C1164       C  0.50924801  0.10118484  0.86658369     1.01900
C1165       C  0.60293887  0.48669045  0.11928696     1.01300
C1166       C  0.89933761  0.51835715  0.12646278     1.03300
C1167       C  0.89755599  0.00549273  0.86693452     1.02200
C1168       C  0.59653012  0.98207922  0.85804851     1.01000
C1169       C  0.61555296  0.06308588  0.00420761     1.01100
C1170       C  0.93474480  0.11401077  0.97889764     1.03700
H1171       H  0.56367114  0.04000179  0.91501761     0.31100
O1172       O  0.54426168  0.02723929  0.93610891    -1.04200
H1173       H  0.95985965  0.06446977  0.07075726     0.33100
O1174       O  0.97248121  0.04505427  0.05152672    -1.06700
N1175       N  0.72159021  0.29108226  0.04480559    -0.35800
N1176       N  0.69790706  0.21550831  0.04124984    -0.56300
N1177       N  0.77667636  0.19951497  0.02167443    -0.35800
N1178       N  0.79785026  0.27486008  0.02755433    -0.56300
C1179       C  0.68477283  0.29068387  0.05584225     0.27800
C1180       C  0.73721249  0.32062796  0.06906023     0.27800
C1181       C  0.76354136  0.16717984  0.04381659     0.27800
C1182       C  0.81419616  0.19834716  0.02164308     0.27800
C1183       C  0.66871916  0.23140059  0.01793331     0.36400
C1184       C  0.69874118  0.18014000  0.02438354     0.36400
C1185       C  0.79880406  0.31251710  0.02679511     0.36400
C1186       C  0.82772974  0.26382585  0.99952791     0.36400
C1187       C  0.67601545  0.32041348  0.08786895    -0.21100
C1188       C  0.70979317  0.33898352  0.09772767    -0.21100
C1189       C  0.79289661  0.14521168  0.05948321    -0.21100
C1190       C  0.82525842  0.16474449  0.04422246    -0.21100
C1191       C  0.65008798  0.20590503  0.98665496    -0.22100
C1192       C  0.66882722  0.17254032  0.99172177    -0.22100
C1193       C  0.83044631  0.32590614  0.99874988    -0.22100
C1194       C  0.84887796  0.29452842  0.98131420    -0.22100
C1195       C  0.66019649  0.26891251  0.02643644    -0.17500
C1196       C  0.77406678  0.33343873  0.05804677    -0.17500
C1197       C  0.83735354  0.22611971  0.99712525    -0.17500
C1198       C  0.72620016  0.15536321  0.04085045    -0.17500
H1199       H  0.64834527  0.32837502  0.10108041     0.15400
H1200       H  0.71308384  0.36454597  0.11973702     0.15400
H1201       H  0.79113908  0.11700468  0.07619462     0.15400
H1202       H  0.85330553  0.15472597  0.04842161     0.15400
H1203       H  0.62601843  0.21111047  0.96281498     0.13700
H1204       H  0.66241629  0.14672489  0.97139946     0.13700
H1205       H  0.83953063  0.35493811  0.99213892     0.13700
H1206       H  0.87555385  0.29386125  0.96046944     0.13700
H1207       H  0.73334884  0.27590377  0.01426760     0.27000
H1208       H  0.76130563  0.21861215  0.00001968     0.27000
C1209       C  0.50232396  0.25211091  0.24781551    -0.01700
C1210       C  0.74817232  0.00266654  0.24640544    -0.01700
C1211       C  0.49366813  0.24966439  0.74844024    -0.01700
C1212       C  0.75061145  0.99658425  0.75143795    -0.01700
C1213       C  0.71085656  0.49625872  0.21105359    -0.04500
C1214       C  0.70982357  0.99853903  0.15468086    -0.01600
C1215       C  0.67578811  0.99277293  0.12612058     0.03400
C1216       C  0.63991745  0.48771782  0.15118961    -0.04500
C1217       C  0.64012465  0.48359314  0.20612012    -0.01600
C1218       C  0.67435757  0.48655938  0.23524057     0.03400
C1219       C  0.74327103  0.00670773  0.12336154     0.38000
C1220       C  0.60448258  0.47597818  0.23321857     0.38000
C1221       C  0.67002677  0.48408657  0.29157593     0.36400
C1222       C  0.67920818  0.99064984  0.06960089     0.36400
N1223       N  0.66484023  0.48250019  0.33630018    -0.38400
N1224       N  0.68288886  0.98792201  0.02481143    -0.38400
N1225       N  0.57558010  0.47013422  0.25377721    -0.37800
N1226       N  0.76830625  0.01381503  0.09509910    -0.37900
C1227       C  0.78955406  0.50674893  0.21582416    -0.04500
C1228       C  0.80147347  0.04138892  0.18830170    -0.01600
C1229       C  0.83849474  0.04661104  0.16509013     0.03400
C1230       C  0.86404597  0.51658737  0.16185093    -0.04500
C1231       C  0.85355863  0.48325165  0.18858146    -0.01600
C1232       C  0.82016432  0.48017044  0.22025595     0.03400
C1233       C  0.77633213  0.07273509  0.18307728     0.38000
C1234       C  0.87848124  0.45178204  0.18487322     0.38000
C1235       C  0.82459069  0.45453081  0.26408248     0.36400
C1236       C  0.85122739  0.08369088  0.14687895     0.36400
N1237       N  0.83191517  0.43454160  0.29827539    -0.38400
N1238       N  0.86166534  0.11364447  0.13414087    -0.38400
N1239       N  0.89882667  0.42711621  0.18097091    -0.37800
N1240       N  0.75728184  0.09841663  0.17784847    -0.37900
C1241       C  0.49934229  0.29073448  0.21340926    -0.04500
C1242       C  0.53028649  0.30412264  0.17974375    -0.01600
C1243       C  0.52986668  0.34027091  0.15428112     0.03400
C1244       C  0.50216096  0.36671331  0.16685893    -0.04500
C1245       C  0.97597844  0.35657783  0.20601520    -0.01600
C1246       C  0.97024807  0.31835543  0.22120226     0.03400
C1247       C  0.56354494  0.28170699  0.17196015     0.38000
C1248       C  0.95846797  0.38590414  0.23619913     0.38000
C1249       C  0.93146154  0.30987830  0.23600501     0.36400
C1250       C  0.56077468  0.35250611  0.11991130     0.36400
N1251       N  0.89957173  0.30638777  0.24570713    -0.38400
N1252       N  0.58578118  0.36321600  0.09365221    -0.38400
N1253       N  0.94635198  0.40893846  0.26293920    -0.37800
N1254       N  0.59084160  0.26493656  0.16665858    -0.37900
C1255       C  0.50509508  0.21268484  0.21482028    -0.04500
C1256       C  0.50283431  0.17604465  0.24114208    -0.01600
C1257       C  0.50574201  0.14078817  0.21381911     0.03400
C1258       C  0.51082827  0.13941457  0.15871299    -0.04500
C1259       C  0.01215759  0.17526353  0.13249915    -0.01600
C1260       C  0.00663588  0.21014739  0.15907712     0.03400
C1261       C  0.49733668  0.17372722  0.29757043     0.38000
C1262       C  0.01587629  0.17718764  0.07572746     0.38000
C1263       C  0.99630388  0.24160547  0.12638252     0.36400
C1264       C  0.50382064  0.10564831  0.24349097     0.36400
N1265       N  0.98789801  0.26576645  0.09858205    -0.38400
N1266       N  0.50237633  0.07765075  0.26730871    -0.38400
N1267       N  0.01857295  0.17884863  0.03057123    -0.37800
N1268       N  0.49335904  0.17149872  0.34252133    -0.37900
C1269       C  0.58573947  0.34824204  0.97273167    -0.04500
C1270       C  0.62447355  0.35078197  0.95723154    -0.01600
C1271       C  0.64677857  0.31921758  0.96259311     0.03400
C1272       C  0.63317958  0.28902631  0.99431502    -0.04500
C1273       C  0.59458485  0.28445563  0.00475915    -0.01600
C1274       C  0.57011032  0.31254757  0.98892581     0.03400
C1275       C  0.64341902  0.38634864  0.94319123     0.38000
C1276       C  0.58192328  0.25388345  0.03872426     0.38000
C1277       C  0.52980347  0.30531329  0.99287042     0.36400
C1278       C  0.68527583  0.31997296  0.94203735     0.36400
N1279       N  0.49754988  0.29968736  0.99444459    -0.38400
N1280       N  0.71585238  0.32087488  0.92542310    -0.38400
N1281       N  0.57572917  0.22927260  0.06775081    -0.37800
N1282       N  0.65918104  0.41479627  0.93440496    -0.37900
C1283       C  0.78937868  0.36798431  0.08103168    -0.04500
C1284       C  0.82197727  0.36321648  0.10999612    -0.01600
C1285       C  0.85453540  0.38319188  0.09317360     0.03400
C1286       C  0.85123043  0.41483029  0.05912322    -0.04500
C1287       C  0.81468732  0.42735330  0.04698241    -0.01600
C1288       C  0.78407706  0.40201812  0.05416799     0.03400
C1289       C  0.82426082  0.33080382  0.14503827     0.38000
C1290       C  0.80865753  0.46332228  0.02125511     0.38000
C1291       C  0.74928148  0.40788543  0.02723509     0.36400
C1292       C  0.89058554  0.36732485  0.10505949     0.36400
N1293       N  0.72157620  0.41199748  0.00528449    -0.38400
N1294       N  0.91869292  0.35313625  0.11403507    -0.38400
N1295       N  0.80365738  0.49185413  0.00033142    -0.37800
N1296       N  0.82613690  0.30475453  0.17247772    -0.37900
C1297       C  0.87327411  0.21429657  0.97444797    -0.04500
C1298       C  0.87085107  0.18978708  0.93165596    -0.01600
C1299       C  0.89280720  0.15746176  0.93064566     0.03400
C1300       C  0.91612143  0.15003372  0.97318374    -0.04500
C1301       C  0.92022684  0.17649376  0.01345031    -0.01600
C1302       C  0.90246702  0.21112545  0.00991284     0.03400
C1303       C  0.84203232  0.19534756  0.89314507     0.38000
C1304       C  0.93074430  0.16253851  0.06418563     0.38000
C1305       C  0.90666381  0.23950208  0.04982480     0.36400
C1306       C  0.88724346  0.12966059  0.89034080     0.36400
N1307       N  0.90851433  0.26334055  0.08023924    -0.38400
N1308       N  0.88168773  0.10727624  0.85869888    -0.38400
N1309       N  0.93643521  0.14813481  0.10386377    -0.37800
N1310       N  0.81895573  0.19993940  0.86263162    -0.37900
C1311       C  0.65059697  0.07877092  0.02272268    -0.04500
C1312       C  0.65164040  0.09425705  0.07312019    -0.01600
C1313       C  0.68457931  0.11265742  0.08881639     0.03400
C1314       C  0.71464398  0.11647607  0.05251117    -0.04500
C1315       C  0.71728423  0.09175643  0.01037665    -0.01600
C1316       C  0.68416473  0.07441873  0.99338234     0.03400
C1317       C  0.61885973  0.09287858  0.10774126     0.38000
C1318       C  0.75186324  0.08986470  0.97953062     0.38000
C1319       C  0.68379903  0.05537045  0.94387695     0.36400
C1320       C  0.68427998  0.13565620  0.13541312     0.36400
N1321       N  0.68284049  0.03992508  0.90451811    -0.38400
N1322       N  0.68366451  0.15422242  0.17230327    -0.38400
N1323       N  0.77947104  0.08797597  0.95499977    -0.37800
N1324       N  0.59340695  0.09185413  0.13662684    -0.37900
C1325       C  0.78906350  0.99887869  0.78315056    -0.04500
C1326       C  0.79341956  0.49274993  0.83873447    -0.01600
C1327       C  0.82954936  0.48895333  0.86050391     0.03400
C1328       C  0.86183905  0.00143026  0.83491244    -0.04500
C1329       C  0.85993612  0.00828987  0.78071592    -0.01600
C1330       C  0.82464054  0.00581213  0.75484078     0.03400
C1331       C  0.76190612  0.48675855  0.87456588     0.38000
C1332       C  0.89451616  0.01246374  0.74989195     0.38000
C1333       C  0.82608849  0.00724827  0.69807804     0.36400
C1334       C  0.83408267  0.45924306  0.89905248     0.36400
N1335       N  0.82853017  0.00816213  0.65294016    -0.38400
N1336       N  0.83885061  0.43324836  0.92561949    -0.38400
N1337       N  0.92170048  0.01460022  0.72416654    -0.37800
N1338       N  0.73854550  0.48102644  0.90605462    -0.37900
C1339       C  0.71068562  0.99466335  0.78525874    -0.04500
C1340       C  0.69563650  0.45959921  0.80613666    -0.01600
C1341       C  0.65651773  0.45411470  0.81917436     0.03400
C1342       C  0.63139994  0.98401286  0.82234092    -0.04500
C1343       C  0.64545737  0.01939526  0.80500506    -0.01600
C1344       C  0.68403528  0.02528625  0.78843288     0.03400
C1345       C  0.71916087  0.42736050  0.81518137     0.38000
C1346       C  0.62015991  0.05108617  0.80817621     0.38000
C1347       C  0.69478765  0.06481252  0.78359331     0.36400
C1348       C  0.64081470  0.41602404  0.82403899     0.36400
N1349       N  0.69925587  0.09732395  0.78239617    -0.38400
N1350       N  0.62926788  0.38517103  0.82646281    -0.38400
N1351       N  0.60005727  0.07618814  0.81111108    -0.37800
N1352       N  0.73659335  0.40103425  0.82433604    -0.37900
C1353       C  0.49255167  0.21268760  0.78690299    -0.04500
C1354       C  0.51984538  0.20782724  0.82687838    -0.01600
C1355       C  0.52647920  0.17158706  0.84977318     0.03400
C1356       C  0.50546293  0.13839998  0.83566655    -0.04500
C1357       C  0.97600292  0.14391503  0.80076263    -0.01600
C1358       C  0.96701566  0.18064780  0.78199203     0.03400
C1359       C  0.54137008  0.23971135  0.84659761     0.34000
C1360       C  0.95310574  0.11185146  0.78521339     0.38000
C1361       C  0.92774141  0.18504609  0.76976376     0.36400
C1362       C  0.55702968  0.16845214  0.88625807     0.36400
N1363       N  0.89576149  0.18666776  0.76255633    -0.38400
N1364       N  0.58100677  0.16531614  0.91574638    -0.38400
N1365       N  0.93448079  0.08669341  0.77192141    -0.37800
N1366       N  0.55857309  0.26395808  0.86552185    -0.37900
C1367       C  0.49398056  0.28756026  0.78444113    -0.04500
C1368       C  0.96471903  0.29398328  0.82307100    -0.01600
C1369       C  0.95958687  0.33019379  0.84616489     0.03400
C1370       C  0.48491727  0.36108036  0.83592123    -0.04500
C1371       C  0.51540190  0.35467282  0.80140741    -0.01600
C1372       C  0.52206638  0.31802417  0.78082506     0.03400
C1373       C  0.93850249  0.26394214  0.83899842     0.38000
C1374       C  0.54089281  0.38597245  0.78731291     0.38000
C1375       C  0.56124016  0.31144855  0.76796643     0.36400
C1376       C  0.92523003  0.33729906  0.87548840     0.36400
N1377       N  0.59318556  0.30792615  0.76034223    -0.38400
N1378       N  0.89767395  0.34466057  0.89745396    -0.38400
N1379       N  0.56050688  0.41122647  0.77482547    -0.37800
N1380       N  0.91700248  0.24101248  0.85386653    -0.37900
C1381       C  0.88286883  0.23608425  0.66100436    -0.04500
C1382       C  0.91551392  0.21575593  0.64607583    -0.01600
C1383       C  0.95093755  0.22105964  0.67174635     0.03400
C1384       C  0.95652077  0.24901817  0.71140244    -0.04500
C1385       C  0.92448477  0.27294276  0.71840103    -0.01600
C1386       C  0.88781386  0.26189555  0.70169928     0.03400
C1387       C  0.91201631  0.18636071  0.60721407     0.38000
C1388       C  0.92886572  0.31289977  0.72832012     0.38000
C1389       C  0.85518723  0.27479124  0.73031345     0.36400
C1390       C  0.98084515  0.19616727  0.65732119     0.36400
N1391       N  0.82896792  0.28336672  0.75454879    -0.38400
N1392       N  0.00358136  0.17543648  0.64398155    -0.38400
N1393       N  0.93118821  0.34522789  0.73421329    -0.37800
N1394       N  0.90907486  0.16306163  0.57612445    -0.37900
C1395       C  0.60691383  0.25866376  0.65991717    -0.04500
C1396       C  0.57576441  0.28087459  0.64534829    -0.01600
C1397       C  0.53950181  0.27692562  0.67125824     0.03400
C1398       C  0.53186725  0.24909706  0.71163289    -0.04500
C1399       C  0.56252664  0.22356527  0.71900803    -0.01600
C1400       C  0.59992606  0.23241003  0.70082074     0.03400
C1401       C  0.58209242  0.31085944  0.60686875     0.38000
C1402       C  0.55630292  0.18399988  0.73156542     0.38000
C1403       C  0.63110269  0.21445223  0.72586542     0.36400
C1404       C  0.51098703  0.30339335  0.65740242     0.36400
N1405       N  0.65583173  0.20084306  0.74724685    -0.38400
N1406       N  0.48912936  0.32533977  0.64556232    -0.38400
N1407       N  0.55346125  0.15176934  0.73900444    -0.37800
N1408       N  0.58809661  0.33461869  0.57620622    -0.37900
C1409       C  0.74207259  0.10866471  0.66253454    -0.04500
C1410       C  0.76626181  0.10620905  0.70547107    -0.01600
C1411       C  0.76810304  0.07185985  0.73564884     0.03400
C1412       C  0.75204166  0.03598843  0.71724722    -0.04500
C1413       C  0.73554407  0.03913139  0.66750913    -0.01600
C1414       C  0.72429677  0.07435779  0.64728282     0.03400
C1415       C  0.78867974  0.13918635  0.71987995     0.38000
C1416       C  0.74302060  0.01107708  0.62904890     0.38000
C1417       C  0.69350393  0.07459997  0.61117381     0.36400
C1418       C  0.78265207  0.07628391  0.78795191     0.36400
N1419       N  0.66813541  0.07530279  0.58360108    -0.38400
N1420       N  0.79393297  0.08104091  0.82953117    -0.38400
N1421       N  0.75040186  0.48964488  0.59911173    -0.37800
N1422       N  0.80690887  0.16528055  0.73121874    -0.37900
C1423       C  0.74864600  0.38270020  0.66629893    -0.04500
C1424       C  0.71832309  0.40764453  0.66459655    -0.01600
C1425       C  0.71934119  0.44354101  0.69047233     0.03400
C1426       C  0.75164723  0.45693180  0.71967874    -0.04500
C1427       C  0.78034706  0.42792167  0.72457752    -0.01600
C1428       C  0.77947624  0.39362998  0.69581576     0.03400
C1429       C  0.68533222  0.39580168  0.63596945     0.38000
C1430       C  0.80927052  0.42713294  0.76362131     0.38000
C1431       C  0.81185601  0.36931725  0.69570802     0.36400
C1432       C  0.68556651  0.46566709  0.68740181     0.36400
N1433       N  0.83877064  0.35171976  0.69460977    -0.38400
N1434       N  0.65838567  0.48278135  0.68412353    -0.38400
N1435       N  0.83334993  0.42227415  0.79250810    -0.37800
N1436       N  0.65915837  0.38597457  0.61309965    -0.37900
C1437       C  0.84176245  0.10317710  0.47056229    -0.04500
C1438       C  0.82942697  0.06724685  0.49002928    -0.01600
C1439       C  0.85370505  0.03664307  0.48782589     0.03400
C1440       C  0.88883753  0.04102645  0.46213599    -0.04500
C1441       C  0.89775352  0.07430716  0.43368904    -0.01600
C1442       C  0.87643743  0.10644263  0.44208428     0.03400
C1443       C  0.79354136  0.06267669  0.51709439     0.38000
C1444       C  0.93171842  0.07647638  0.40105944     0.38000
C1445       C  0.89202720  0.14271106  0.42407507     0.36400
C1446       C  0.84435882  0.00218350  0.51651587     0.36400
N1447       N  0.90542244  0.17125482  0.40991075    -0.38400
N1448       N  0.83681094  0.97474719  0.53966474    -0.38400
N1449       N  0.95876119  0.07794324  0.37505515    -0.37800
N1450       N  0.76445867  0.06036845  0.53795173    -0.37900
C1451       C  0.59760867  0.16204214  0.54121724    -0.04500
C1452       C  0.56491874  0.15919136  0.51108735    -0.01600
C1453       C  0.53302055  0.14025551  0.53227777     0.03400
C1454       C  0.53852304  0.11408550  0.57300143    -0.04500
C1455       C  0.56864942  0.12021694  0.60704743    -0.01600
C1456       C  0.59775699  0.14586924  0.59190072     0.03400
C1457       C  0.56863841  0.16060913  0.45467103     0.38000
C1458       C  0.57343228  0.09459534  0.65090758     0.38000
C1459       C  0.63001454  0.15114519  0.62478485     0.36400
C1460       C  0.49847030  0.13920470  0.50322351     0.36400
N1461       N  0.65599112  0.15481538  0.65083806    -0.38400
N1462       N  0.47090713  0.13863587  0.47997823    -0.38400
N1463       N  0.57764027  0.07378722  0.68536049    -0.37800
N1464       N  0.57166365  0.15765266  0.40983224    -0.37900
C1465       C  0.66254299  0.39529751  0.46507083    -0.04500
C1466       C  0.63183803  0.39641514  0.43096029    -0.01600
C1467       C  0.61703844  0.43145509  0.41804084     0.03400
C1468       C  0.62571617  0.46206562  0.45053469    -0.04500
C1469       C  0.66113621  0.46339675  0.47332330    -0.01600
C1470       C  0.67926144  0.42965681  0.48237552     0.03400
C1471       C  0.61242951  0.36224208  0.41470835     0.38000
C1472       C  0.67716229  0.49841385  0.49190551     0.38000
C1473       C  0.71305739  0.43027481  0.51311308     0.36400
C1474       C  0.58579602  0.43393599  0.38282845     0.36400
N1475       N  0.74033114  0.42923377  0.53683562    -0.38400
N1476       N  0.56050328  0.43549053  0.35522883    -0.38400
N1477       N  0.69104491  0.52630282  0.50567250    -0.37800
N1478       N  0.59553716  0.33519182  0.40396483    -0.37900
C1479       C  0.95935370  0.38030292  0.54533230    -0.04500
C1480       C  0.92821041  0.39285723  0.57422543    -0.01600
C1481       C  0.89451319  0.37185699  0.57153509     0.03400
C1482       C  0.89501400  0.33568031  0.54862728    -0.04500
C1483       C  0.93047368  0.31861282  0.53924699    -0.01600
C1484       C  0.96264693  0.34200121  0.53461168     0.03400
C1485       C  0.92913668  0.43049510  0.59617084     0.38000
C1486       C  0.93415212  0.27879335  0.52782974     0.38000
C1487       C  0.99767365  0.32785282  0.51345062     0.36400
C1488       C  0.85967548  0.38968845  0.58570672     0.36400
N1489       N  0.02560275  0.31641941  0.49678940    -0.38400
N1490       N  0.83183991  0.40453137  0.59533887    -0.38400
N1491       N  0.93754349  0.24722432  0.51813332    -0.37800
N1492       N  0.93006061  0.46055841  0.61339105    -0.37900
C1493       C  0.61679170  0.25997245  0.32830502    -0.04500
C1494       C  0.60327775  0.29194030  0.30116103    -0.01600
C1495       C  0.56397477  0.29269271  0.28661807     0.03400
C1496       C  0.54149314  0.25737236  0.28112100    -0.04500
C1497       C  0.56305414  0.22604139  0.29800695    -0.01600
C1498       C  0.58804102  0.23269287  0.33924356     0.03400
C1499       C  0.62785477  0.32492487  0.29320026     0.38000
C1500       C  0.57951493  0.20266807  0.25800171     0.38000
C1501       C  0.57024248  0.23686029  0.39008169     0.36400
C1502       C  0.54806340  0.32986979  0.28458106     0.36400
N1503       N  0.55610965  0.24178130  0.43049812    -0.38400
N1504       N  0.53715795  0.36034582  0.28535004    -0.38400
N1505       N  0.59325133  0.18429317  0.22612541    -0.37800
N1506       N  0.64725704  0.35139491  0.28652570    -0.37900
C1507       C  0.88925356  0.24630903  0.33715855    -0.04500
C1508       C  0.92045084  0.26788467  0.35519450    -0.01600
C1509       C  0.95731033  0.26613966  0.33155995     0.03400
C1510       C  0.96367057  0.24711434  0.28305816    -0.04500
C1511       C  0.92982221  0.22873215  0.26269524    -0.01600
C1512       C  0.89476413  0.22596000  0.29126321     0.03400
C1513       C  0.91323799  0.29642380  0.39397079     0.38000
C1514       C  0.92692993  0.21822374  0.20872503     0.38000
C1515       C  0.86297667  0.20473793  0.27039367     0.36400
C1516       C  0.98702208  0.28683447  0.35720952     0.36400
N1517       N  0.83781581  0.18815414  0.25286386    -0.38400
N1518       N  0.00876757  0.30398320  0.38094613    -0.38400
N1519       N  0.92110291  0.20993225  0.16614870    -0.37800
N1520       N  0.90698163  0.32034754  0.42292805    -0.37900
C1521       C  0.75779520  0.39134760  0.33912753    -0.04500
C1522       C  0.76108474  0.42755999  0.36336806    -0.01600
C1523       C  0.75178075  0.46186655  0.33724833     0.03400
C1524       C  0.74841283  0.46378015  0.28164778    -0.04500
C1525       C  0.74725672  0.42724512  0.25671421    -0.01600
C1526       C  0.74969637  0.39217764  0.28512467     0.03400
C1527       C  0.77938642  0.43138194  0.41318811     0.38000
C1528       C  0.74663734  0.42496743  0.20043760     0.38000
C1529       C  0.74635630  0.35695618  0.25697734     0.36400
C1530       C  0.74464046  0.49392840  0.37019913     0.36400
N1531       N  0.74361132  0.32907061  0.23407191    -0.38400
N1532       N  0.74106237  0.01912005  0.39822205    -0.38400
N1533       N  0.74640451  0.42264293  0.15550355    -0.37800
N1534       N  0.79548630  0.43483727  0.45171756    -0.37900
C1535       C  0.74397918  0.04223031  0.27876861    -0.04500
C1536       C  0.77569230  0.05939555  0.30527771    -0.01600
C1537       C  0.77444586  0.09679104  0.32559556     0.03400
C1538       C  0.74041263  0.11575476  0.33153669    -0.04500
C1539       C  0.70839234  0.09877354  0.31016128    -0.01600
C1540       C  0.71155389  0.06677448  0.27733902     0.03400
C1541       C  0.81062734  0.03989157  0.31260711     0.38000
C1542       C  0.67212647  0.11609853  0.31854308     0.38000
C1543       C  0.68376928  0.06619118  0.23698359     0.36400
C1544       C  0.80891190  0.11695203  0.33773848     0.36400
N1545       N  0.66076244  0.06783658  0.20581203    -0.38400
N1546       N  0.83649869  0.13391485  0.34470798    -0.38400
N1547       N  0.64308001  0.12946975  0.32531151    -0.37800
N1548       N  0.83922332  0.02610582  0.32010930    -0.37900
O1549       O  0.74734110  0.68330335  0.35029733    -0.79300
O1550       O  0.74137322  0.67903436  0.64913224    -0.80900
O1551       O  0.78269811  0.63353353  0.48371877    -0.77900
O1552       O  0.66264969  0.66136213  0.51768126    -0.76300
O1553       O  0.62946347  0.71519873  0.50738736    -0.78100
O1554       O  0.83724310  0.66792055  0.48928889    -0.79000
O1555       O  0.73382283  0.63890148  0.58041311    -0.80300
O1556       O  0.72690614  0.64163830  0.41532777    -0.80600
Eu1557     Eu  0.73013401  0.67515697  0.49811897     2.39200
O1558       O  0.70227294  0.71978579  0.55194736    -0.88100
O1559       O  0.77538929  0.70604968  0.44329052    -0.91700
C1560       C  0.73780941  0.64934707  0.36792083     1.03000
C1561       C  0.73830745  0.64501331  0.62959307     1.02800
C1562       C  0.81883282  0.63680935  0.48228836     1.02700
C1563       C  0.63214799  0.68045015  0.51980114     1.00600
H1564       H  0.78810224  0.68462618  0.57291640     0.30300
O1565       O  0.77446516  0.70325665  0.55372655    -1.00500
H1566       H  0.68562033  0.70647456  0.42004667     0.30400
O1567       O  0.70427219  0.71965464  0.44043392    -1.03000
O1568       O  0.74775701  0.81410276  0.64886403    -0.80300
O1569       O  0.75387131  0.82070194  0.35156612    -0.79800
O1570       O  0.85313969  0.72697360  0.57987832    -0.78200
O1571       O  0.63952673  0.76726421  0.57735044    -0.81600
O1572       O  0.64300645  0.76466165  0.41201811    -0.79400
O1573       O  0.85815607  0.73851140  0.41901199    -0.78100
O1574       O  0.83139919  0.83712395  0.52050040    -0.79600
O1575       O  0.71599481  0.86098156  0.48067937    -0.81500
O1576       O  0.86187581  0.78200019  0.52330731    -0.78300
O1577       O  0.65936204  0.83020199  0.48491955    -0.81000
O1578       O  0.81340475  0.74252505  0.64717886    -0.76700
O1579       O  0.81984037  0.74841137  0.34945565    -0.76700
O1580       O  0.68531406  0.75707386  0.34442480    -0.76400
O1581       O  0.67657666  0.75184385  0.64601108    -0.79900
O1582       O  0.75720656  0.85650876  0.58103535    -0.79300
O1583       O  0.77016763  0.85833564  0.41941916    -0.77600
Eu1584     Eu  0.74527718  0.74683745  0.61175715     2.39800
Eu1585     Eu  0.75109181  0.75122565  0.38467641     2.39600
Eu1586     Eu  0.81945698  0.73303755  0.49858428     2.38400
Eu1587     Eu  0.67581047  0.76427348  0.49532424     2.39900
Eu1588     Eu  0.76591050  0.82096406  0.50057341     2.39800
O1589       O  0.72309328  0.79308037  0.44363741    -0.92000
O1590       O  0.79098277  0.77567384  0.55512382    -0.90900
C1591       C  0.75085356  0.84861121  0.62967134     1.03100
C1592       C  0.76124083  0.85416339  0.37122770     1.01900
C1593       C  0.84698960  0.73417614  0.62839714     1.01300
C1594       C  0.64387018  0.76018134  0.62630932     1.03300
C1595       C  0.65092685  0.76113938  0.36300753     1.02200
C1596       C  0.85318026  0.74435030  0.36998003     1.01000
C1597       C  0.86045310  0.81740136  0.53025373     1.01100
C1598       C  0.68032449  0.85996994  0.47752904     1.03700
H1599       H  0.81498979  0.79445328  0.42461635     0.31100
O1600       O  0.79544590  0.77980948  0.44293077    -1.04200
H1601       H  0.70385291  0.80998534  0.57244106     0.33100
O1602       O  0.71829284  0.79174639  0.55349526    -1.06700
N1603       N  0.03735899  0.94142293  0.48200387    -0.35800
N1604       N  0.96066421  0.46781689  0.48135231    -0.56300
N1605       N  0.97900499  0.53746868  0.52009033    -0.35800
N1606       N  0.55672108  0.51814131  0.52850294    -0.56300
C1607       C  0.01683061  0.91736439  0.51224565     0.27800
C1608       C  0.57105525  0.94464481  0.50285187     0.27800
C1609       C  0.94127044  0.53850489  0.51993387     0.27800
C1610       C  0.49109356  0.56288042  0.55513701     0.27800
C1611       C  0.95845359  0.93205529  0.47015430     0.36400
C1612       C  0.92856549  0.48318298  0.46652968     0.36400
C1613       C  0.58817794  0.00919672  0.49951026     0.36400
C1614       C  0.55748260  0.55575166  0.53180404     0.36400
C1615       C  0.03800659  0.90476076  0.55363310    -0.21100
C1616       C  0.57273713  0.92303362  0.54787144    -0.21100
C1617       C  0.92886199  0.56483636  0.55564079    -0.21100
C1618       C  0.46054379  0.58007304  0.57840369    -0.21100
C1619       C  0.92319739  0.92388719  0.44990401    -0.22100
C1620       C  0.90394808  0.45537680  0.44897641    -0.22100
C1621       C  0.60668693  0.04131879  0.48143404    -0.22100
C1622       C  0.58821689  0.57072515  0.50322722    -0.22100
C1623       C  0.97916328  0.90872743  0.50294466    -0.17500
C1624       C  0.59654364  0.97270337  0.48647754    -0.17500
C1625       C  0.52865304  0.57591291  0.55665597    -0.17500
C1626       C  0.91883406  0.51903775  0.48373601    -0.17500
H1627       H  0.02868248  0.88629805  0.58557984     0.15400
H1628       H  0.59571001  0.92202864  0.57485875     0.15400
H1629       H  0.90015478  0.57302909  0.56322560     0.15400
H1630       H  0.46128100  0.60292231  0.60608383     0.15400
H1631       H  0.90954574  0.89633800  0.44729837     0.13700
H1632       H  0.87493707  0.45860373  0.43811203     0.13700
H1633       H  0.62917932  0.04403109  0.45243285     0.13700
H1634       H  0.59721833  0.59921358  0.49669446     0.13700
H1635       H  0.02892823  0.95611588  0.44882564     0.27000
H1636       H  0.99551054  0.52547869  0.49087699     0.27000
O1637       O  0.49117415  0.93069048  0.84922379    -0.79300
O1638       O  0.49852678  0.93566691  0.15062385    -0.80900
O1639       O  0.52755146  0.88005659  0.98563632    -0.77900
O1640       O  0.91462489  0.91126021  0.02251253    -0.76300
O1641       O  0.88504190  0.96714614  0.02667332    -0.78100
O1642       O  0.58204584  0.91423748  0.98586184    -0.79000
O1643       O  0.48937875  0.89348671  0.08420219    -0.80300
O1644       O  0.47526779  0.89100210  0.91808928    -0.80600
Eu1645     Eu  0.48009741  0.92619188  0.00017483     2.39200
O1646       O  0.95588751  0.97335362  0.05339705    -0.88100
O1647       O  0.52331692  0.95364748  0.93973578    -0.91700
C1648       C  0.48303296  0.89711395  0.86908963     1.03000
C1649       C  0.49606466  0.90139310  0.13232161     1.02800
C1650       C  0.56347234  0.88293514  0.98195584     1.02700
C1651       C  0.88618399  0.93150454  0.03417214     1.00600
H1652       H  0.54143499  0.93757668  0.07025949     0.30300
O1653       O  0.52664982  0.95540388  0.05137031    -1.00500
H1654       H  0.93288076  0.95557564  0.92532344     0.30400
O1655       O  0.95240295  0.96954702  0.94306137    -1.03000
O1656       O  0.50615568  0.56827617  0.14810296    -0.80300
O1657       O  0.50195436  0.56823198  0.84873774    -0.79800
O1658       O  0.60615622  0.97720832  0.07110727    -0.78200
O1659       O  0.89307429  0.02804321  0.07866555    -0.81600
O1660       O  0.89271139  0.51312411  0.91538720    -0.79400
O1661       O  0.60392141  0.47592838  0.90677057    -0.78100
O1662       O  0.58684522  0.58330813  0.00627036    -0.79600
O1663       O  0.97143026  0.61653859  0.98440648    -0.81500
O1664       O  0.61678090  0.52770145  0.99552958    -0.78300
O1665       O  0.91519247  0.58399395  0.98201003    -0.81000
O1666       O  0.57005105  0.99688343  0.13978883    -0.76700
O1667       O  0.56371428  0.49061862  0.84106055    -0.76700
O1668       O  0.93206831  0.50188818  0.84567449    -0.76400
O1669       O  0.93220592  0.00823279  0.14341161    -0.79900
O1670       O  0.01829511  0.60561695  0.07737602    -0.79300
O1671       O  0.02156026  0.60658906  0.91435804    -0.77600
Eu1672     Eu  0.50094646  0.00150928  0.10931707     2.39800
Eu1673     Eu  0.49812592  0.49852730  0.88257642     2.39600
Eu1674     Eu  0.56994212  0.48035835  0.99086187     2.38400
Eu1675     Eu  0.92789252  0.51723630  0.99704367     2.39900
Eu1676     Eu  0.51978771  0.57089406  0.99497108     2.39800
O1677       O  0.97402362  0.54336372  0.94122921    -0.92000
O1678       O  0.54636238  0.52593875  0.04829961    -0.90900
C1679       C  0.01187084  0.60171810  0.12682317     1.03100
C1680       C  0.51113419  0.60172024  0.86734091     1.01900
C1681       C  0.60259779  0.98696303  0.11932764     1.01300
C1682       C  0.89925660  0.01878940  0.12647134     1.03300
C1683       C  0.89857626  0.50654066  0.86634955     1.02200
C1684       C  0.59701030  0.48225901  0.85827681     1.01000
C1685       C  0.61600684  0.56254222  0.00634218     1.01100
C1686       C  0.93571109  0.61447734  0.97897656     1.03700
H1687       H  0.56465659  0.53972716  0.91539223     0.31100
O1688       O  0.54510776  0.52703851  0.93631404    -1.04200
H1689       H  0.96022663  0.56449408  0.07070322     0.33100
O1690       O  0.97290090  0.54508775  0.05152860    -1.06700
N1691       N  0.72168268  0.79054850  0.04515336    -0.35800
N1692       N  0.69808144  0.71525034  0.04242250    -0.56300
N1693       N  0.77646431  0.69895400  0.01672340    -0.35800
N1694       N  0.79733426  0.77432884  0.02214678    -0.56300
C1695       C  0.68520156  0.79014282  0.05829385     0.27800
C1696       C  0.73807101  0.81982351  0.06891794     0.27800
C1697       C  0.76387886  0.66681649  0.04005767     0.27800
C1698       C  0.81400460  0.69763130  0.01469810     0.27800
C1699       C  0.66818623  0.73112558  0.02082711     0.36400
C1700       C  0.69853753  0.67996912  0.02520373     0.36400
C1701       C  0.79861692  0.81202756  0.02302846     0.36400
C1702       C  0.82712991  0.76350620  0.99364915     0.36400
C1703       C  0.67739259  0.81962026  0.09124600    -0.21100
C1704       C  0.71154825  0.83794773  0.09953995    -0.21100
C1705       C  0.79354420  0.64478933  0.05416105    -0.21100
C1706       C  0.82548680  0.66396743  0.03674363    -0.21100
C1707       C  0.64881185  0.70568305  0.99034652    -0.22100
C1708       C  0.66774997  0.67235583  0.99416906    -0.22100
C1709       C  0.83027248  0.82561209  0.99516981    -0.22100
C1710       C  0.84842557  0.79439663  0.97652431    -0.22100
C1711       C  0.65984568  0.76862697  0.02991558    -0.17500
C1712       C  0.77461386  0.83262773  0.05606879    -0.17500
C1713       C  0.83696420  0.72578064  0.99051357    -0.17500
C1714       C  0.72639359  0.65518925  0.04012032    -0.17500
H1715       H  0.65008445  0.82760668  0.10604258     0.15400
H1716       H  0.71559408  0.86322971  0.12191136     0.15400
H1717       H  0.79211796  0.61679829  0.07160750     0.15400
H1718       H  0.85350448  0.65370935  0.03978070     0.15400
H1719       H  0.62406762  0.71090403  0.96792775     0.13700
H1720       H  0.66084717  0.64652058  0.97414854     0.13700
H1721       H  0.83972268  0.85465409  0.98981433     0.13700
H1722       H  0.87517931  0.79383111  0.95591274     0.13700
H1723       H  0.73252274  0.77551552  0.01383771     0.27000
H1724       H  0.76044051  0.71821001  0.99631833     0.27000
C1725       C  0.50234140  0.75255279  0.24674340    -0.01700
C1726       C  0.74831457  0.50254763  0.24685194    -0.01700
C1727       C  0.49392114  0.74994447  0.74831951    -0.01700
C1728       C  0.75101945  0.49717032  0.75259978    -0.01700
C1729       C  0.71069699  0.99628395  0.21075137    -0.04500
C1730       C  0.71009130  0.49848372  0.15494548    -0.01600
C1731       C  0.67614311  0.49242775  0.12625976     0.03400
C1732       C  0.63963296  0.98782981  0.15118532    -0.04500
C1733       C  0.63998295  0.98361397  0.20614365    -0.01600
C1734       C  0.67425986  0.98677945  0.23516290     0.03400
C1735       C  0.74361051  0.50649672  0.12367299     0.38000
C1736       C  0.60440716  0.97609097  0.23336043     0.38000
C1737       C  0.67012468  0.98539197  0.29159049     0.36400
C1738       C  0.67977322  0.48927178  0.06987095     0.36400
N1739       N  0.66550280  0.98508123  0.33644118    -0.38400
N1740       N  0.68360491  0.48559933  0.02525142    -0.38400
N1741       N  0.57545445  0.97037725  0.25381646    -0.37800
N1742       N  0.76872952  0.51333029  0.09542562    -0.37900
C1743       C  0.78939120  0.00672187  0.21526230    -0.04500
C1744       C  0.80148941  0.54126902  0.18837277    -0.01600
C1745       C  0.83819731  0.54615054  0.16399992     0.03400
C1746       C  0.86406157  0.01686191  0.16191583    -0.04500
C1747       C  0.85316786  0.98308145  0.18721593    -0.01600
C1748       C  0.81985934  0.97988509  0.21903967     0.03400
C1749       C  0.77662644  0.57292755  0.18424431     0.38000
C1750       C  0.87759964  0.95127781  0.18191456     0.38000
C1751       C  0.82417762  0.95343586  0.26193373     0.36400
C1752       C  0.85024037  0.58262905  0.14271491     0.36400
N1753       N  0.83144858  0.93259078  0.29516014    -0.38400
N1754       N  0.86034334  0.61195053  0.12690193    -0.38400
N1755       N  0.89754093  0.92637943  0.17667328    -0.37800
N1756       N  0.75796628  0.59902203  0.18026773    -0.37900
C1757       C  0.49928205  0.79115289  0.21229051    -0.04500
C1758       C  0.53009634  0.80457703  0.17843128    -0.01600
C1759       C  0.52987306  0.84100907  0.15375931     0.03400
C1760       C  0.50216718  0.86736149  0.16671858    -0.04500
C1761       C  0.97593193  0.85684167  0.20526994    -0.01600
C1762       C  0.97016485  0.81856419  0.22004627     0.03400
C1763       C  0.56341217  0.78228250  0.17057484     0.38000
C1764       C  0.95746634  0.88601038  0.23467511     0.38000
C1765       C  0.93122485  0.80988066  0.23379267     0.36400
C1766       C  0.56123060  0.85374671  0.12044874     0.36400
N1767       N  0.89923430  0.80619758  0.24264133    -0.38400
N1768       N  0.58672643  0.86475930  0.09532946    -0.38400
N1769       N  0.94438512  0.90893580  0.26069890    -0.37800
N1770       N  0.59093283  0.76582959  0.16558257    -0.37900
C1771       C  0.50480431  0.71299122  0.21393982    -0.04500
C1772       C  0.50213690  0.67638825  0.24035130    -0.01600
C1773       C  0.50460653  0.64105248  0.21312130     0.03400
C1774       C  0.51041631  0.63955642  0.15816260    -0.04500
C1775       C  0.01162372  0.67533839  0.13152420    -0.01600
C1776       C  0.00599759  0.71025998  0.15797525     0.03400
C1777       C  0.49645916  0.67415535  0.29674312     0.38000
C1778       C  0.01523238  0.67717971  0.07474088     0.38000
C1779       C  0.99505661  0.74155773  0.12539223     0.36400
C1780       C  0.50080529  0.60592229  0.24260942     0.36400
N1781       N  0.98579756  0.76560054  0.09798470    -0.38400
N1782       N  0.49762283  0.57787916  0.26614016    -0.38400
N1783       N  0.01789155  0.67885568  0.02958111    -0.37800
N1784       N  0.49228042  0.67194532  0.34166470    -0.37900
C1785       C  0.58540868  0.84818472  0.97567497    -0.04500
C1786       C  0.62421272  0.85076217  0.96066032    -0.01600
C1787       C  0.64646598  0.81922685  0.96628052     0.03400
C1788       C  0.63285149  0.78910124  0.99812669    -0.04500
C1789       C  0.59423944  0.78450018  0.00829234    -0.01600
C1790       C  0.56977247  0.81252239  0.99214483     0.03400
C1791       C  0.64324816  0.88628890  0.94651507     0.38000
C1792       C  0.58151965  0.75347684  0.04137172     0.38000
C1793       C  0.52947161  0.80512317  0.99535770     0.36400
C1794       C  0.68470374  0.81972515  0.94487472     0.36400
N1795       N  0.49722535  0.79943199  0.99615105    -0.38400
N1796       N  0.71501200  0.82052951  0.92730960    -0.38400
N1797       N  0.57565119  0.72826387  0.06949526    -0.37800
N1798       N  0.65905720  0.91468965  0.93754300    -0.37900
C1799       C  0.79066409  0.86638024  0.08022328    -0.04500
C1800       C  0.82359117  0.86046057  0.10794249    -0.01600
C1801       C  0.85609740  0.88054721  0.09131211     0.03400
C1802       C  0.85259317  0.91298082  0.05876871    -0.04500
C1803       C  0.81604232  0.92623423  0.04824877    -0.01600
C1804       C  0.78521965  0.90120176  0.05550039     0.03400
C1805       C  0.82589247  0.82716312  0.14133276     0.38000
C1806       C  0.81021633  0.96271178  0.02377381     0.38000
C1807       C  0.74959002  0.90868693  0.03157393     0.36400
C1808       C  0.89221612  0.86433679  0.10202652     0.36400
N1809       N  0.72109366  0.91432662  0.01238619    -0.38400
N1810       N  0.92042574  0.84998345  0.10989407    -0.38400
N1811       N  0.80581104  0.99161104  0.00351166    -0.37800
N1812       N  0.82757525  0.80038881  0.16743076    -0.37900
C1813       C  0.87369320  0.71440140  0.96960402    -0.04500
C1814       C  0.87252641  0.68931238  0.92732422    -0.01600
C1815       C  0.89445204  0.65697501  0.92838448     0.03400
C1816       C  0.91719207  0.65044955  0.97178453    -0.04500
C1817       C  0.92037734  0.67749468  0.01143171    -0.01600
C1818       C  0.90209733  0.71182380  0.00658333     0.03400
C1819       C  0.84465746  0.69408976  0.88727829     0.38000
C1820       C  0.93014933  0.66420785  0.06283951     0.38000
C1821       C  0.90467902  0.74014515  0.04684758     0.36400
C1822       C  0.88883650  0.62789012  0.88983296     0.36400
N1823       N  0.90541668  0.76362667  0.07786109    -0.38400
N1824       N  0.88312499  0.60425080  0.86002647    -0.38400
N1825       N  0.93529189  0.65031675  0.10303628    -0.37800
N1826       N  0.82246231  0.69797685  0.85533772    -0.37900
C1827       C  0.65107351  0.57814490  0.02463585    -0.04500
C1828       C  0.65221249  0.59433284  0.07457656    -0.01600
C1829       C  0.68525483  0.61282780  0.08969160     0.03400
C1830       C  0.71509937  0.61636452  0.05294170    -0.04500
C1831       C  0.71764186  0.59098552  0.01149262    -0.01600
C1832       C  0.68453049  0.57327206  0.99530540     0.03400
C1833       C  0.61938936  0.59368644  0.10913746     0.38000
C1834       C  0.75209511  0.58838553  0.98053660     0.38000
C1835       C  0.68405577  0.55297300  0.94672239     0.36400
C1836       C  0.68515370  0.63629228  0.13584199     0.36400
N1837       N  0.68276740  0.53631883  0.90833540    -0.38400
N1838       N  0.68462107  0.65524831  0.17235025    -0.38400
N1839       N  0.77958728  0.58583039  0.95591688    -0.37800
N1840       N  0.59386163  0.59328567  0.13789387    -0.37900
C1841       C  0.78967542  0.49957295  0.78385729    -0.04500
C1842       C  0.79237222  0.99209445  0.83806541    -0.01600
C1843       C  0.82831292  0.98810422  0.86038029     0.03400
C1844       C  0.86278401  0.50248260  0.83463157    -0.04500
C1845       C  0.86053031  0.50923028  0.78049079    -0.01600
C1846       C  0.82505887  0.50662450  0.75510079     0.03400
C1847       C  0.76047425  0.98665301  0.87341639     0.38000
C1848       C  0.89490934  0.51350095  0.74926075     0.38000
C1849       C  0.82610664  0.50873232  0.69839490     0.36400
C1850       C  0.83218430  0.95847461  0.89920489     0.36400
N1851       N  0.82827095  0.51052789  0.65328041    -0.38400
N1852       N  0.83610966  0.93243091  0.92601321    -0.38400
N1853       N  0.92191244  0.51571892  0.72317497    -0.37800
N1854       N  0.73659661  0.98158630  0.90434893    -0.37900
C1855       C  0.71133759  0.49541580  0.78688842    -0.04500
C1856       C  0.69500087  0.95885645  0.80473580    -0.01600
C1857       C  0.65603069  0.95357374  0.81907065     0.03400
C1858       C  0.63191548  0.48451615  0.82281341    -0.04500
C1859       C  0.64607858  0.52008315  0.80646454    -0.01600
C1860       C  0.68469667  0.52606510  0.79022546     0.03400
C1861       C  0.71839682  0.92635580  0.81261479     0.38000
C1862       C  0.62072012  0.55172747  0.80982208     0.38000
C1863       C  0.69540182  0.56562089  0.78575269     0.36400
C1864       C  0.64046727  0.91556311  0.82615115     0.36400
N1865       N  0.69972629  0.59814993  0.78465726    -0.38400
N1866       N  0.62894969  0.88476829  0.83027055    -0.38400
N1867       N  0.60053660  0.57676309  0.81279050    -0.37800
N1868       N  0.73558117  0.89964567  0.82047910    -0.37900
C1869       C  0.49314256  0.71310879  0.78723392    -0.04500
C1870       C  0.52055865  0.70862229  0.82714786    -0.01600
C1871       C  0.52769096  0.67245006  0.85011503     0.03400
C1872       C  0.50690753  0.63899761  0.83643648    -0.04500
C1873       C  0.97716428  0.64408376  0.80143634    -0.01600
C1874       C  0.96785979  0.68069200  0.78245925     0.03400
C1875       C  0.54195284  0.74080364  0.84626177     0.34000
C1876       C  0.95441244  0.61179214  0.78642577     0.38000
C1877       C  0.92852576  0.68466856  0.77029052     0.36400
C1878       C  0.55885390  0.66955537  0.88555170     0.36400
N1879       N  0.89652070  0.68587660  0.76305004    -0.38400
N1880       N  0.58351865  0.66655068  0.91393987    -0.38400
N1881       N  0.93604455  0.58626208  0.77380248    -0.37800
N1882       N  0.55905260  0.76542537  0.86447077    -0.37900
C1883       C  0.49393965  0.78813510  0.78384928    -0.04500
C1884       C  0.96464183  0.79455107  0.82193422    -0.01600
C1885       C  0.95959000  0.83072317  0.84519819     0.03400
C1886       C  0.48462824  0.86158288  0.83546686    -0.04500
C1887       C  0.51516673  0.85535433  0.80107836    -0.01600
C1888       C  0.52184252  0.81882821  0.78004067     0.03400
C1889       C  0.93789615  0.76482566  0.83702253     0.38000
C1890       C  0.54093853  0.88671472  0.78821747     0.38000
C1891       C  0.56091323  0.81281577  0.76606194     0.36400
C1892       C  0.92543632  0.83801072  0.87488215     0.36400
N1893       N  0.59285237  0.81010902  0.75754130    -0.38400
N1894       N  0.89825517  0.84594306  0.89731826    -0.38400
N1895       N  0.56077381  0.91210281  0.77707141    -0.37800
N1896       N  0.91569972  0.74230840  0.85099675    -0.37900
C1897       C  0.88296616  0.73512465  0.66145425    -0.04500
C1898       C  0.91554238  0.71454442  0.64683325    -0.01600
C1899       C  0.95111090  0.72021471  0.67209725     0.03400
C1900       C  0.95680349  0.74863307  0.71110339    -0.04500
C1901       C  0.92481345  0.77262587  0.71764844    -0.01600
C1902       C  0.88809417  0.76127877  0.70165228     0.03400
C1903       C  0.91182964  0.68466173  0.60872664     0.38000
C1904       C  0.92917667  0.81272196  0.72654892     0.38000
C1905       C  0.85571526  0.77398462  0.73094759     0.36400
C1906       C  0.98105429  0.69524935  0.65812090     0.36400
N1907       N  0.82986087  0.78247633  0.75599508    -0.38400
N1908       N  0.00392437  0.67448158  0.64539177    -0.38400
N1909       N  0.93145000  0.84512191  0.73172673    -0.37800
N1910       N  0.90869366  0.66105148  0.57812240    -0.37900
C1911       C  0.60706000  0.75981982  0.65947418    -0.04500
C1912       C  0.57551387  0.78133895  0.64445454    -0.01600
C1913       C  0.53925474  0.77698442  0.67032625     0.03400
C1914       C  0.53209336  0.74954606  0.71137582    -0.04500
C1915       C  0.56322448  0.72467473  0.71929907    -0.01600
C1916       C  0.60049389  0.73389502  0.70087398     0.03400
C1917       C  0.58130275  0.81102178  0.60539738     0.38000
C1918       C  0.55771612  0.68517776  0.73264724     0.38000
C1919       C  0.63198045  0.71633779  0.72578038     0.36400
C1920       C  0.51013629  0.80244293  0.65526597     0.36400
N1921       N  0.65696756  0.70299071  0.74690203    -0.38400
N1922       N  0.48779637  0.82347779  0.64205579    -0.38400
N1923       N  0.55565657  0.65300843  0.74085468    -0.37800
N1924       N  0.58682532  0.83455314  0.57426111    -0.37900
C1925       C  0.74145141  0.60929890  0.66368360    -0.04500
C1926       C  0.76550594  0.60709348  0.70678857    -0.01600
C1927       C  0.76807004  0.57262249  0.73660717     0.03400
C1928       C  0.75210953  0.53662333  0.71836231    -0.04500
C1929       C  0.73539369  0.53964694  0.66874978    -0.01600
C1930       C  0.72403490  0.57482891  0.64835504     0.03400
C1931       C  0.78680049  0.64060296  0.72203368     0.38000
C1932       C  0.74267831  0.51137299  0.63052791     0.38000
C1933       C  0.69324098  0.57497904  0.61225768     0.36400
C1934       C  0.78375524  0.57695882  0.78827637     0.36400
N1935       N  0.66786445  0.57584798  0.58471359    -0.38400
N1936       N  0.79623114  0.58170005  0.82917842    -0.38400
N1937       N  0.75075598  0.98955929  0.59736283    -0.37800
N1938       N  0.80399586  0.66717859  0.73418027    -0.37900
C1939       C  0.74843875  0.88282015  0.66463028    -0.04500
C1940       C  0.71834419  0.90794952  0.66223895    -0.01600
C1941       C  0.71924917  0.94357620  0.68857147     0.03400
C1942       C  0.75142443  0.95661751  0.71827295    -0.04500
C1943       C  0.78008040  0.92755953  0.72328717    -0.01600
C1944       C  0.77911400  0.89333568  0.69456729     0.03400
C1945       C  0.68577726  0.89664960  0.63231800     0.38000
C1946       C  0.80899051  0.92662109  0.76236021     0.38000
C1947       C  0.81119390  0.86858390  0.69479174     0.36400
C1948       C  0.68552426  0.96579036  0.68538612     0.36400
N1949       N  0.83767675  0.85035345  0.69371234    -0.38400
N1950       N  0.65841337  0.98299952  0.68196709    -0.38400
N1951       N  0.83307686  0.92172019  0.79122803    -0.37800
N1952       N  0.65996887  0.88733208  0.60832641    -0.37900
C1953       C  0.84072144  0.60248211  0.47185174    -0.04500
C1954       C  0.82769217  0.56677196  0.49142579    -0.01600
C1955       C  0.85147975  0.53579240  0.48968602     0.03400
C1956       C  0.88649191  0.53935823  0.46360233    -0.04500
C1957       C  0.89561455  0.57221316  0.43425060    -0.01600
C1958       C  0.87522267  0.60493000  0.44291918     0.03400
C1959       C  0.79139431  0.56255552  0.51747442     0.38000
C1960       C  0.92891824  0.57330930  0.40035654     0.38000
C1961       C  0.89132323  0.64082637  0.42421981     0.36400
C1962       C  0.84185552  0.50187259  0.51940093     0.36400
N1963       N  0.90481511  0.66913971  0.40928360    -0.38400
N1964       N  0.83411177  0.47489198  0.54344262    -0.38400
N1965       N  0.95531500  0.57392591  0.37308915    -0.37800
N1966       N  0.76192896  0.56027017  0.53724432    -0.37900
C1967       C  0.59756367  0.66237715  0.54065149    -0.04500
C1968       C  0.56549083  0.66002220  0.50923051    -0.01600
C1969       C  0.53298090  0.64154079  0.52917144     0.03400
C1970       C  0.53732443  0.61538758  0.57015160    -0.04500
C1971       C  0.56669409  0.62107159  0.60542032    -0.01600
C1972       C  0.59659780  0.64605822  0.59130158     0.03400
C1973       C  0.57045346  0.66136563  0.45294432     0.38000
C1974       C  0.56924397  0.59616248  0.65051233     0.38000
C1975       C  0.62827875  0.65062074  0.62542277     0.36400
C1976       C  0.49898735  0.64087032  0.49891810     0.36400
N1977       N  0.65370268  0.65356922  0.65265214    -0.38400
N1978       N  0.47181386  0.64059245  0.47483268    -0.38400
N1979       N  0.57135793  0.57599797  0.68617595    -0.37800
N1980       N  0.57461994  0.65833372  0.40826513    -0.37900
C1981       C  0.66374427  0.89601608  0.46358181    -0.04500
C1982       C  0.63317147  0.89755086  0.42926413    -0.01600
C1983       C  0.61864466  0.93278791  0.41671708     0.03400
C1984       C  0.62734431  0.96299217  0.44987968    -0.04500
C1985       C  0.66308013  0.96418779  0.47172548    -0.01600
C1986       C  0.68087122  0.93025457  0.48081221     0.03400
C1987       C  0.61367437  0.86365964  0.41220389     0.38000
C1988       C  0.67967757  0.99922793  0.48947220     0.38000
C1989       C  0.71478434  0.93061180  0.51127977     0.36400
C1990       C  0.58736287  0.93565421  0.38168630     0.36400
N1991       N  0.74213679  0.92928783  0.53479599    -0.38400
N1992       N  0.56185828  0.93730940  0.35448543    -0.38400
N1993       N  0.69386482  0.02718030  0.50252179    -0.37800
N1994       N  0.59658632  0.83694393  0.40058130    -0.37900
C1995       C  0.95831426  0.88224845  0.53762952    -0.04500
C1996       C  0.92729104  0.89565373  0.56614792    -0.01600
C1997       C  0.89430327  0.87338985  0.56818917     0.03400
C1998       C  0.89519601  0.83625889  0.54859186    -0.04500
C1999       C  0.93082994  0.81963123  0.53951686    -0.01600
C2000       C  0.96222616  0.84352792  0.53038846     0.03400
C2001       C  0.92748280  0.93427614  0.58462853     0.38000
C2002       C  0.93525543  0.77932456  0.53313513     0.38000
C2003       C  0.99695890  0.82904393  0.50870853     0.36400
C2004       C  0.85941390  0.89051221  0.58400155     0.36400
N2005       N  0.02474327  0.81750498  0.49171662    -0.38400
N2006       N  0.83157585  0.90491091  0.59498488    -0.38400
N2007       N  0.93958397  0.74736518  0.52748798    -0.37800
N2008       N  0.92748024  0.96505392  0.59928220    -0.37900
C2009       C  0.61669485  0.75941982  0.32792586    -0.04500
C2010       C  0.60397405  0.79126023  0.29973080    -0.01600
C2011       C  0.56478433  0.79260088  0.28475686     0.03400
C2012       C  0.54166843  0.75760194  0.27978675    -0.04500
C2013       C  0.56264040  0.72606295  0.29729915    -0.01600
C2014       C  0.58740852  0.73266236  0.33884089     0.03400
C2015       C  0.62926819  0.82362088  0.29110582     0.38000
C2016       C  0.57912669  0.70245495  0.25756588     0.38000
C2017       C  0.56915981  0.73738302  0.38926935     0.36400
C2018       C  0.54969340  0.83011690  0.28175121     0.36400
N2019       N  0.55448487  0.74250339  0.42926343    -0.38400
N2020       N  0.53946951  0.86085752  0.28166095    -0.38400
N2021       N  0.59287368  0.68392729  0.22587283    -0.37800
N2022       N  0.64929039  0.84956609  0.28392495    -0.37900
C2023       C  0.88975425  0.74706894  0.33742795    -0.04500
C2024       C  0.92115627  0.76857970  0.35506287    -0.01600
C2025       C  0.95775832  0.76711970  0.33048934     0.03400
C2026       C  0.96376051  0.74774342  0.28219719    -0.04500
C2027       C  0.92972085  0.72940802  0.26236140    -0.01600
C2028       C  0.89483028  0.72686845  0.29133672     0.03400
C2029       C  0.91445739  0.79660049  0.39472525     0.38000
C2030       C  0.92632755  0.71923061  0.20832308     0.38000
C2031       C  0.86263801  0.70613549  0.27072134     0.36400
C2032       C  0.98756046  0.78868649  0.35465163     0.36400
N2033       N  0.83696233  0.69007495  0.25369949    -0.38400
N2034       N  0.00944577  0.80661420  0.37707278    -0.38400
N2035       N  0.91999941  0.71147223  0.16569483    -0.37800
N2036       N  0.90871923  0.82013154  0.42449603    -0.37900
C2037       C  0.75754947  0.89148007  0.33897360    -0.04500
C2038       C  0.76153901  0.92771812  0.36301285    -0.01600
C2039       C  0.75227039  0.96212293  0.33703038     0.03400
C2040       C  0.74829402  0.96400347  0.28149779    -0.04500
C2041       C  0.74666955  0.92743029  0.25671048    -0.01600
C2042       C  0.74895562  0.89236014  0.28514644     0.03400
C2043       C  0.78071551  0.93138189  0.41220868     0.38000
C2044       C  0.74639436  0.92513511  0.20042612     0.38000
C2045       C  0.74530663  0.85717099  0.25702464     0.36400
C2046       C  0.74624942  0.99438442  0.37004429     0.36400
N2047       N  0.74238349  0.82934518  0.23402561    -0.38400
N2048       N  0.73826218  0.51847270  0.39821210    -0.38400
N2049       N  0.74666755  0.92292840  0.15547192    -0.37800
N2050       N  0.79751353  0.93464598  0.45018314    -0.37900
C2051       C  0.74420442  0.54191001  0.27967940    -0.04500
C2052       C  0.77595656  0.55906749  0.30622907    -0.01600
C2053       C  0.77463461  0.59641690  0.32673224     0.03400
C2054       C  0.74056384  0.61520433  0.33306155    -0.04500
C2055       C  0.70846998  0.59794339  0.31231706    -0.01600
C2056       C  0.71161995  0.56621583  0.27900863     0.03400
C2057       C  0.81118638  0.53997720  0.31283556     0.38000
C2058       C  0.67212385  0.61478992  0.32181222     0.38000
C2059       C  0.68388037  0.56600803  0.23862121     0.36400
C2060       C  0.80901422  0.61687035  0.33844244     0.36400
N2061       N  0.66099598  0.56802476  0.20732482    -0.38400
N2062       N  0.83636566  0.63431065  0.34500999    -0.38400
N2063       N  0.64308761  0.62789330  0.32970035    -0.37800
N2064       N  0.84025110  0.52695273  0.31960058    -0.37900
loop_ 
_geom_bond_atom_site_label_1 
_geom_bond_atom_site_label_2 
_geom_bond_distance 
_geom_bond_site_symmetry_2 
_ccdc_geom_bond_type 
O1           C12   1.312       .  A
O1          Eu37   2.571       .  S
O2           C13   1.313       .  A
O2          Eu36   2.576       .  S
O3           C14   1.287       .  A
O3           Eu9   2.443       .  S
O4           C15   1.294       .  A
O4           Eu9   2.478       .  S
O5           C15   1.274       .  A
O5          Eu39   2.377       .  S
O6           C14   1.282       .  A
O6          Eu38   2.418       .  S
O7           C13   1.293       .  A
O7           Eu9   2.461       .  S
O8           C12   1.290       .  A
O8           Eu9   2.447       .  S
Eu9          O19   2.364       .  S
Eu9          O11   2.350       .  S
Eu9          O10   2.339       .  S
Eu9          O17   2.356       .  S
O10         Eu39   2.354       .  S
O10         Eu36   2.379       .  S
O11         Eu37   2.370       .  S
O11         Eu38   2.323       .  S
C12         C506   1.515       .  S
C13         C377   1.534       .  S
C14         C405   1.485       .  S
C15         C419   1.461       .  S
H16          O17   0.965       .  S
O17         Eu38   2.329       .  S
O17         Eu36   2.400       .  S
H18          O19   0.966       .  S
O19         Eu37   2.412       .  S
O19         Eu39   2.361       .  S
O20          C43   1.315       .  A
O20         Eu36   2.585       .  S
O21          C44   1.314       .  A
O21         Eu37   2.587       .  S
O22          C45   1.286       .  A
O22         Eu38   2.431       .  S
O23          C46   1.289       .  A
O23         Eu39   2.447       .  S
O24          C47   1.288       .  A
O24         Eu39   2.449       .  S
O25          C48   1.286       .  A
O25         Eu38   2.434       .  S
O26          C49   1.288       .  A
O26         Eu40   2.445       .  S
O27          C50   1.271       .  A
O27         Eu40   2.361       .  S
O28          C49   1.270       .  A
O28         Eu38   2.361       .  S
O29          C50   1.284       .  A
O29         Eu39   2.431       .  S
O30          C45   1.318       .  A
O30         Eu36   2.605       .  S
O31          C48   1.315       .  A
O31         Eu37   2.588       .  S
O32          C47   1.312       .  A
O32         Eu37   2.579       .  S
O33          C46   1.315       .  A
O33         Eu36   2.588       .  S
O34          C43   1.288       .  A
O34         Eu40   2.454       .  S
O35          C44   1.290       .  A
O35         Eu40   2.452       .  S
Eu36         O54   2.400       .  S
Eu36         O42   2.357       .  S
Eu37         O41   2.355       .  S
Eu37         O52   2.403       .  S
Eu38         O52   2.357       .  S
Eu38         O42   2.338       .  S
Eu39         O41   2.324       .  S
Eu39         O54   2.345       .  S
Eu40         O41   2.338       .  S
Eu40         O52   2.344       .  S
Eu40         O54   2.357       .  S
Eu40         O42   2.322       .  S
C43         C391   1.525       .  S
C44         C489   1.559       .  S
C45         C349   1.546       .  S
C46         C363   1.544       .  S
C47         C461   1.525       .  S
C48         C475   1.528       .  S
C49         C450   1.475       .  S
C50         C433   1.463       .  S
H51          O52   0.966       .  S
H53          O54   0.965       .  S
N55          H87   1.045       .  S
N55          C59   1.336       .  A
N55        C1092   1.330       .  A
N56          C64   1.336       .  A
N56         C579   1.332       .  A
N57          H88   1.042       .  S
N57          C61   1.344       .  A
N57        C1094   1.348       .  A
N58          C66   1.336       .  A
N58         C581   1.347       .  A
C59          C67   1.388       .  A
C59          C75   1.389       .  A
C60        N1087   1.330       .  A
C60          C76   1.381       .  A
C60          C68   1.379       .  A
C61          C69   1.388       .  A
C61          C78   1.412       .  A
C62        N1089   1.348       .  A
C62          C77   1.403   1_655  A
C62          C70   1.386       .  A
C63         N572   1.332       .  A
C63          C75   1.405       .  A
C63          C71   1.389       .  A
C64          C78   1.399   1_565  A
C64          C72   1.385       .  A
C65         N574   1.347       .  A
C65          C73   1.370       .  A
C65          C76   1.378       .  A
C66          C74   1.390       .  A
C66          C77   1.408       .  A
C67        C1100   1.382       .  A
C67          H79   1.082       .  S
C68        C1099   1.382       .  A
C68          H80   1.081       .  S
C69        C1102   1.380       .  A
C69          H81   1.082       .  S
C70        C1101   1.380       .  A
C70          H82   1.082       .  S
C71         C588   1.386       .  A
C71          H83   1.081       .  S
C72         C587   1.385       .  A
C72          H84   1.082       .  S
C73         C590   1.361       .  A
C73          H85   1.081       .  S
C74         C589   1.357       .  A
C74          H86   1.060       .  S
C75         C447   1.460       .  S
C76         C436   1.473       .  S
C77         C422   1.474       .  S
C78         C408   1.471       .  S
O89         C100   1.312       .  A
O89        Eu641   2.571       .  S
O90         C101   1.309       .  A
O90        Eu124   2.554   1_655  S
O91         C102   1.280       .  A
O91         Eu97   2.413   1_456  S
O92         C103   1.289       .  A
O92       Eu1129   2.446       .  S
O93         C103   1.277       .  A
O93        Eu643   2.392   1_554  S
O94         C102   1.281       .  A
O94        Eu642   2.411       .  S
O95         C101   1.293       .  A
O95         Eu97   2.467       .  S
O96         C100   1.293       .  A
O96         Eu97   2.462   1_556  S
Eu97       O1124   2.445       .  S
Eu97         O99   2.342   1_654  S
Eu97        O105   2.357   1_655  S
Eu97       O1139   2.360   1_554  S
Eu97       O1130   2.340       .  S
O98       Eu1129   2.341       .  S
O98        Eu643   2.357   1_554  S
O98       Eu1156   2.376       .  S
O99        Eu641   2.365   1_455  S
O99        Eu642   2.313       .  S
C100        C338   1.537       .  S
C101        C212   1.510   1_655  S
C102        C237   1.484       .  S
C103        C254   1.475       .  S
H104        O105   0.964       .  S
O105       Eu124   2.405       .  S
O105       Eu642   2.317   1_554  S
H106        O107   0.965       .  S
O107      Eu1129   2.361   1_556  S
O107      Eu1673   2.410       .  S
O107       Eu643   2.364       .  S
O108       C1163   1.311       .  A
O108       Eu640   2.583       .  S
O109        C132   1.317       .  A
O109       Eu125   2.599   1_445  S
O110        C133   1.290       .  A
O110       Eu642   2.460   1_554  S
O111        C134   1.288       .  A
O111       Eu643   2.439   1_554  S
O112        C135   1.293       .  A
O112       Eu127   2.463       .  S
O113        C136   1.289       .  A
O113       Eu126   2.453       .  S
O114        C137   1.288       .  A
O114       Eu128   2.440   1_554  S
O115        C138   1.280       .  A
O115      Eu1160   2.400       .  S
O116        C137   1.269   1_556  A
O116       Eu126   2.338   1_545  S
O117        C138   1.287       .  A
O117       Eu127   2.448       .  S
O118        C133   1.318       .  A
O118       Eu124   2.601       .  S
O119        C136   1.312       .  A
O119       Eu125   2.568   1_455  S
O120        C135   1.308       .  A
O120      Eu1157   2.554   1_545  S
O121        C134   1.319       .  A
O121      Eu1156   2.596       .  S
O122        C131   1.288       .  A
O122      Eu1160   2.461   1_554  S
O123       C1164   1.283       .  A
O123      Eu1160   2.405       .  S
Eu124       O624   2.586       .  S
Eu124      O1153   2.595   1_455  S
Eu124      O1130   2.377   1_455  S
Eu124      O1690   2.390   1_455  S
Eu124       O646   2.360       .  S
Eu125       O605   2.564       .  S
Eu125      O1152   2.554   1_565  S
Eu125       O140   2.396   1_665  S
Eu125       O615   2.366   1_655  S
Eu125      O1655   2.408       .  S
Eu125      O1161   2.360   1_565  S
Eu126       O610   2.412       .  S
Eu126       O626   2.463   1_556  S
Eu126       O140   2.354   1_565  S
Eu126       O130   2.357   1_566  S
Eu126       O615   2.315       .  S
Eu126       O621   2.316   1_556  S
Eu127       O609   2.395   1_546  S
Eu127       O627   2.439   1_556  S
Eu127       O129   2.316       .  S
Eu127       O142   2.352   1_556  S
Eu127       O614   2.357   1_546  S
Eu127       O623   2.364   1_545  S
Eu128      O1147   2.400   1_455  S
Eu128      O1154   2.461   1_556  S
Eu128      O1155   2.405       .  S
Eu128       O140   2.356       .  S
Eu128       O130   2.317   1_556  S
Eu128      O1161   2.343   1_455  S
Eu128      O1174   2.335   1_456  S
O129      Eu1157   2.360   1_545  S
O129      Eu1160   2.343       .  S
O130       Eu640   2.362       .  S
C131       O1140   1.311       .  A
C131       C1258   1.568       .  S
C132       O1155   1.283       .  A
C132        C324   1.540       .  S
C133        C184   1.561       .  S
C134        C198   1.531       .  S
C135        C296   1.528       .  S
C136        C310   1.523       .  S
C137        C279   1.441       .  S
C138        C268   1.460       .  S
H139        O140   0.966       .  S
H141        O142   0.965       .  S
O142      Eu1672   2.388       .  S
O142      Eu1160   2.335   1_554  S
N143        H175   1.041       .  S
N143        C148   1.337       .  A
N143        C147   1.332       .  A
N144        C151   1.341       .  A
N144        C152   1.331       .  A
N145        H176   1.042   1_554  S
N145        C150   1.335       .  A
N145        C149   1.340       .  A
N146        C153   1.333       .  A
N146        C154   1.338   1_554  A
C147        C155   1.380       .  A
C147        C163   1.388       .  A
C148        C164   1.396       .  A
C148        C156   1.388       .  A
C149        C157   1.381       .  A
C149        C166   1.384       .  A
C150        C165   1.400   1_554  A
C150        C158   1.387       .  A
C151        C163   1.389       .  A
C151        C159   1.379   1_554  A
C152        C166   1.398       .  A
C152        C160   1.388   1_554  A
C153        C161   1.390   1_554  A
C153        C164   1.407       .  A
C154        C162   1.376       .  A
C154        C165   1.389       .  A
C155        C156   1.382       .  A
C155        H167   1.079       .  S
C156        H168   1.077       .  S
C157        C158   1.373       .  A
C157        H169   1.082       .  S
C158        H170   1.073       .  S
C159        C160   1.378       .  A
C159        H171   1.079       .  S
C160        H172   1.079       .  S
C161        C162   1.379       .  A
C161        H173   1.080       .  S
C162        H174   1.079       .  S
C163        C240   1.470   1_554  S
C164        C251   1.461       .  S
C165        C265   1.464       .  S
C166        C282   1.453       .  S
C177        C209   1.626   1_455  S
C177        C223   1.646       .  S
C177        C464   1.654       .  S
C177       C1510   1.631   1_455  S
C178        C503   1.645       .  S
C178        C697   1.642   1_545  S
C178        C711   1.654       .  S
C178       C1008   1.629   1_545  S
C179        C321   1.628       .  S
C179        C335   1.637       .  S
C179        C366   1.637   1_655  S
C179       C1384   1.642       .  S
C180        C293   1.603       .  S
C180        C307   1.645       .  S
C180        C380   1.638   1_565  S
C180        C910   1.660       .  S
C181        C186   1.456       .  A
C181        C698   1.438       .  A
C181        C694   1.643       .  S
C182        C183   1.437       .  A
C182        C697   1.438       .  A
C182        C187   1.440   1_565  S
C183        C700   1.429       .  A
C183        C190   1.452       .  S
C184        C185   1.412       .  A
C184        C699   1.429       .  A
C185        C186   1.442       .  A
C185        C188   1.448       .  S
C186        C189   1.449       .  S
C187        N194   1.155       .  T
C188        N193   1.156       .  T
C189        N191   1.156       .  T
C190        N192   1.157       .  T
C195        C200   1.463       .  A
C195        C712   1.452       .  A
C195        C694   1.654       .  S
C196        C197   1.438       .  A
C196        C711   1.452       .  A
C196        C201   1.450       .  S
C197        C714   1.411       .  A
C197        C204   1.446       .  S
C198        C199   1.396       .  A
C198        C713   1.412       .  A
C199        C200   1.424       .  A
C199        C202   1.445       .  S
C200        C203   1.449       .  S
C201        N208   1.157       .  T
C202        N207   1.153       .  T
C203        N205   1.158       .  T
C204        N206   1.155       .  T
C209        C210   1.449   1_655  A
C209       C1246   1.455       .  A
C210        C211   1.431       .  A
C210        C215   1.453       .  S
C211        C212   1.412       .  A
C211        C218   1.447       .  S
C212       C1245   1.389   1_455  A
C213        C214   1.413       .  A
C213       C1244   1.389       .  A
C213        C216   1.448       .  S
C214       C1241   1.455       .  A
C214        C217   1.444       .  S
C215        N222   1.157       .  T
C216        N221   1.157       .  T
C217        N219   1.158       .  T
C218        N220   1.156       .  T
C223        C224   1.455       .  A
C223       C1260   1.435       .  A
C224        C225   1.444       .  A
C224        C229   1.455   1_455  S
C225        C226   1.420       .  A
C225        C232   1.450       .  S
C226       C1163   1.569       .  S
C226       C1259   1.435       .  A
C227        C228   1.434       .  A
C227       C1258   1.435       .  A
C227        C230   1.457       .  S
C228       C1255   1.436       .  A
C228        C231   1.446       .  S
C229        N236   1.158       .  T
C230        N235   1.159       .  T
C231        N233   1.156       .  T
C232        N234   1.157       .  T
C237        C238   1.424       .  A
C237        C242   1.421       .  A
C238        C239   1.395       .  A
C238        C243   1.450       .  S
C239        C240   1.404       .  A
C239        C246   1.454       .  S
C240        C241   1.396   1_556  A
C241        C242   1.401   1_554  A
C241        C244   1.437       .  S
C242        C245   1.449       .  S
C243        N250   1.157       .  T
C244        N249   1.152       .  T
C245        N247   1.157   1_455  T
C246        N248   1.158       .  T
C251        C252   1.401       .  A
C251        C256   1.400       .  A
C252        C253   1.397       .  A
C252        C257   1.454       .  S
C253        C254   1.420       .  A
C253        C260   1.449       .  S
C254        C255   1.422       .  A
C255        C256   1.399       .  A
C255        C258   1.451       .  S
C256        C259   1.446       .  S
C257        N264   1.157       .  T
C258        N263   1.158       .  T
C259        N261   1.155       .  T
C260        N262   1.156       .  T
C265        C266   1.408       .  A
C265        C270   1.398   1_556  A
C266        C267   1.403       .  A
C266        C271   1.452       .  S
C267        C268   1.408       .  A
C267        C274   1.448       .  S
C268        C269   1.409   1_556  A
C269        C270   1.397       .  A
C269        C272   1.444       .  S
C270        C273   1.449       .  S
C271        N278   1.157       .  T
C272        N277   1.155       .  T
C273        N275   1.157       .  T
C274        N276   1.156       .  T
C279        C280   1.409       .  A
C279        C284   1.409   1_554  A
C280        C281   1.393       .  A
C280        C285   1.448       .  S
C281        C282   1.404       .  A
C281        C288   1.452       .  S
C282        C283   1.401       .  A
C283        C284   1.393   1_554  A
C283        C286   1.450   1_554  S
C284        C287   1.443       .  S
C285        N292   1.156       .  T
C286        N291   1.157       .  T
C287        N289   1.153       .  T
C288        N290   1.157       .  T
C293        C298   1.457   1_565  A
C293        C810   1.431       .  A
C294        C295   1.419       .  A
C294        C809   1.432       .  A
C294        C299   1.442       .  S
C295        C812   1.411       .  A
C295        C302   1.449       .  S
C296        C297   1.409       .  A
C296        C811   1.413   1_545  A
C297        C298   1.431       .  A
C297        C300   1.449       .  S
C298        C301   1.453       .  S
C299        N306   1.157       .  T
C300        N305   1.158       .  T
C301        N303   1.157       .  T
C302        N304   1.157       .  T
C307        C312   1.460   1_565  A
C307        C824   1.450       .  A
C308        C309   1.430       .  A
C308        C823   1.449       .  A
C308        C313   1.452       .  S
C309        C826   1.408       .  A
C309        C316   1.449       .  S
C310        C311   1.400   1_565  A
C310        C825   1.409       .  A
C311        C312   1.435       .  A
C311        C314   1.459       .  S
C312        C315   1.445       .  S
C313        N320   1.158       .  T
C314        N319   1.158       .  T
C315        N317   1.158       .  T
C316        N318   1.158       .  T
C321        C322   1.436   1_655  A
C321       C1358   1.444       .  A
C322        C323   1.432       .  A
C322        C327   1.449       .  S
C323        C324   1.430       .  A
C323        C330   1.452       .  S
C324       C1357   1.409   1_455  A
C325        C326   1.428       .  A
C325       C1356   1.409       .  A
C325        C328   1.444       .  S
C326       C1353   1.444       .  A
C326        C329   1.448       .  S
C327        N334   1.157       .  T
C328        N333   1.154       .  T
C329        N331   1.157       .  T
C330        N332   1.156       .  T
C335        C340   1.451   1_655  A
C335       C1368   1.439       .  A
C336        C337   1.434       .  A
C336       C1367   1.439       .  A
C336        C341   1.444       .  S
C337       C1370   1.416       .  A
C337        C344   1.449       .  S
C338        C339   1.408   1_655  A
C338       C1369   1.416       .  A
C339        C340   1.431       .  A
C339        C342   1.450       .  S
C340        C343   1.449       .  S
C341        N348   1.155       .  T
C342        N347   1.157       .  T
C343        N345   1.158       .  T
C344        N346   1.156       .  T
C349        C350   1.429       .  A
C349        C354   1.405       .  A
C350        C351   1.441       .  A
C350        C355   1.453       .  S
C351        C352   1.440       .  A
C351        C358   1.444       .  S
C352        C353   1.446       .  A
C352       C1211   1.642       .  S
C353        C354   1.425       .  A
C353        C356   1.446       .  S
C354        C357   1.445       .  S
C355        N362   1.158       .  T
C356        N361   1.158       .  T
C357        N359   1.158       .  T
C358        N360   1.155       .  T
C363        C364   1.428       .  A
C363        C368   1.406       .  A
C364        C365   1.439       .  A
C364        C369   1.450       .  S
C365        C366   1.436       .  A
C365        C372   1.445       .  S
C366        C367   1.448       .  A
C367        C368   1.424       .  A
C367        C370   1.444       .  S
C368        C371   1.449       .  S
C369        N376   1.157       .  T
C370        N375   1.157       .  T
C371        N373   1.158       .  T
C372        N374   1.156   1_455  T
C377        C378   1.412       .  A
C377        C382   1.417       .  A
C378        C379   1.437       .  A
C378        C383   1.452       .  S
C379        C380   1.466       .  A
C379        C386   1.454       .  S
C380        C381   1.417       .  A
C381        C382   1.416       .  A
C381        C384   1.434       .  S
C382        C385   1.447       .  S
C383        N390   1.158       .  T
C384        N905   1.154   1_545  T
C385        N387   1.157       .  T
C386        N388   1.158       .  T
N389        C900   1.154       .  T
C391        C392   1.412       .  A
C391        C396   1.392       .  A
C392        C393   1.441       .  A
C392        C397   1.450       .  S
C393        C394   1.454       .  A
C393        C400   1.454       .  S
C394        C395   1.473       .  A
C394        C696   1.665       .  S
C395        C396   1.428       .  A
C395        C398   1.449       .  S
C396        C399   1.455       .  S
C397        N404   1.157       .  T
C398        N403   1.157       .  T
C399        N401   1.155       .  T
C400        N402   1.158       .  T
C405        C406   1.417       .  A
C405        C410   1.419       .  A
C406        C407   1.404       .  A
C406        C411   1.442       .  S
C407        C408   1.402       .  A
C407        C414   1.445       .  S
C408        C409   1.404       .  A
C409        C410   1.400       .  A
C409        C412   1.453       .  S
C410        C413   1.451       .  S
C411        N418   1.153       .  T
C412        N417   1.157       .  T
C413        N415   1.157       .  T
C414        N416   1.155   1_545  T
C419        C420   1.409       .  A
C419        C424   1.412       .  A
C420        C421   1.398       .  A
C420        C425   1.448       .  S
C421        C422   1.407       .  A
C421        C428   1.448   1_455  S
C422        C423   1.409       .  A
C423        C424   1.403       .  A
C423        C426   1.451       .  S
C424        C427   1.445       .  S
C425        N432   1.157       .  T
C426        N431   1.157       .  T
C427        N429   1.155       .  T
C428        N430   1.156       .  T
C433        C434   1.412       .  A
C433        C438   1.419       .  A
C434        C435   1.400       .  A
C434        C439   1.447       .  S
C435        C436   1.406       .  A
C435        C442   1.448       .  S
C436        C437   1.397       .  A
C437        C438   1.392       .  A
C437        C440   1.441       .  S
C438        C441   1.449       .  S
C439        N446   1.156       .  T
C440        N445   1.154       .  T
C441        N443   1.155       .  T
C442        N444   1.157       .  T
C447        C448   1.403       .  A
C447        C452   1.395       .  A
C448        C449   1.395       .  A
C448        C453   1.453       .  S
C449        C450   1.416       .  A
C449        C456   1.446       .  S
C450        C451   1.429       .  A
C451        C452   1.395       .  A
C451        C454   1.453       .  S
C452        C455   1.451       .  S
C453        N460   1.157       .  T
C454        N459   1.157       .  T
C455        N457   1.157       .  T
C456        N458   1.156       .  T
C461        C462   1.421       .  A
C461        C466   1.408       .  A
C462        C463   1.453       .  A
C462        C467   1.449       .  S
C463        C464   1.476       .  A
C463        C470   1.448       .  S
C464        C465   1.433       .  A
C465        C466   1.411       .  A
C465        C468   1.448       .  S
C466        C469   1.446       .  S
C467        N474   1.158       .  T
C468        N473   1.158       .  T
C469        N471   1.158       .  T
C470        N472   1.157       .  T
C475        C476   1.418       .  A
C475        C480   1.399       .  A
C476        C477   1.434       .  A
C476        C481   1.449       .  S
C477        C478   1.436       .  A
C477        C484   1.443       .  S
C478        C479   1.461       .  A
C478       C1209   1.632       .  S
C479        C480   1.432       .  A
C479        C482   1.440       .  S
C480        C483   1.454       .  S
C481        N488   1.156       .  T
C482        N487   1.154       .  T
C483        N485   1.158       .  T
C484        N486   1.157       .  T
C489        C490   1.435       .  A
C489        C494   1.418       .  A
C490        C491   1.430       .  A
C490        C495   1.450       .  S
C491        C492   1.432       .  A
C491        C498   1.448       .  S
C492        C493   1.450       .  A
C492        C694   1.628       .  S
C493        C494   1.438       .  A
C493        C496   1.445       .  S
C494        C497   1.452       .  S
C495        N502   1.156       .  T
C496        N501   1.155       .  T
C497        N499   1.158       .  T
C498       N1016   1.158       .  T
N500       C1014   1.158   1_545  T
C503        C504   1.450       .  A
C503        C508   1.463       .  A
C504        C505   1.430       .  A
C504        C509   1.451       .  S
C505        C506   1.405       .  A
C505        C512   1.442       .  S
C506        C507   1.397       .  A
C507        C508   1.424       .  A
C507        C510   1.455       .  S
C508        C511   1.443       .  S
C509        N516   1.157       .  T
C510        N515   1.157       .  T
C511        N513   1.156       .  T
C512        N514   1.154       .  T
O517        C528   1.313       .  A
O517       Eu553   2.572       .  S
O518        C529   1.313       .  A
O518       Eu552   2.575       .  S
O519        C530   1.285       .  A
O519       Eu525   2.435       .  S
O520        C531   1.293       .  A
O520       Eu525   2.474       .  S
O521        C531   1.274       .  A
O521       Eu555   2.375       .  S
O522        C530   1.283       .  A
O522       Eu554   2.420       .  S
O523        C529   1.292       .  A
O523       Eu525   2.462       .  S
O524        C528   1.290       .  A
O524       Eu525   2.445       .  S
Eu525       O535   2.364       .  S
Eu525       O527   2.351       .  S
Eu525       O526   2.336       .  S
Eu525       O533   2.354       .  S
O526       Eu555   2.356       .  S
O526       Eu552   2.377       .  S
O527       Eu553   2.372       .  S
O527       Eu554   2.327       .  S
C528       C1022   1.516       .  S
C529        C893   1.536       .  S
C530        C921   1.485       .  S
C531        C935   1.458       .  S
H532        O533   0.965       .  S
O533       Eu554   2.332       .  S
O533       Eu552   2.396       .  S
H534        O535   0.966       .  S
O535       Eu553   2.412       .  S
O535       Eu555   2.362       .  S
O536        C559   1.313       .  A
O536       Eu552   2.577       .  S
O537        C560   1.315       .  A
O537       Eu553   2.592       .  S
O538        C561   1.286       .  A
O538       Eu554   2.432       .  S
O539        C562   1.289       .  A
O539       Eu555   2.447       .  S
O540        C563   1.288       .  A
O540       Eu555   2.452       .  S
O541        C564   1.286       .  A
O541       Eu554   2.436       .  S
O542        C565   1.289       .  A
O542       Eu556   2.445       .  S
O543        C566   1.270       .  A
O543       Eu556   2.358       .  S
O544        C565   1.271       .  A
O544       Eu554   2.368       .  S
O545        C566   1.285       .  A
O545       Eu555   2.437       .  S
O546        C561   1.319       .  A
O546       Eu552   2.610       .  S
O547        C564   1.316       .  A
O547       Eu553   2.590       .  S
O548        C563   1.314       .  A
O548       Eu553   2.586       .  S
O549        C562   1.315       .  A
O549       Eu552   2.586       .  S
O550        C559   1.287       .  A
O550       Eu556   2.445       .  S
O551        C560   1.289       .  A
O551       Eu556   2.450       .  S
Eu552       O570   2.401       .  S
Eu552       O558   2.357       .  S
Eu553       O557   2.353       .  S
Eu553       O568   2.404       .  S
Eu554       O568   2.360       .  S
Eu554       O558   2.339       .  S
Eu555       O557   2.323       .  S
Eu555       O570   2.343       .  S
Eu556       O557   2.336       .  S
Eu556       O568   2.339       .  S
Eu556       O570   2.355       .  S
Eu556       O558   2.322       .  S
C559        C907   1.519       .  S
C560       C1005   1.560       .  S
C561        C865   1.547       .  S
C562        C879   1.544       .  S
C563        C977   1.527       .  S
C564        C991   1.529       .  S
C565        C966   1.475       .  S
C566        C949   1.464       .  S
H567        O568   0.965       .  S
H569        O570   0.965       .  S
N571        H603   1.044       .  S
N571       C1608   1.331       .  A
N571        C575   1.336       .  A
N572        C580   1.337       .  A
N573        H604   1.042       .  S
N573       C1610   1.346       .  A
N573        C577   1.342       .  A
N574        C582   1.335       .  A
C575        C583   1.388       .  A
C575        C591   1.390       .  A
C576       N1603   1.331       .  A
C576        C592   1.382       .  A
C576        C584   1.379       .  A
C577        C585   1.388       .  A
C577        C594   1.409       .  A
C578       N1605   1.346       .  A
C578        C593   1.401   1_655  A
C578        C586   1.386       .  A
C579        C591   1.404       .  A
C579        C587   1.390       .  A
C580        C594   1.399       .  A
C580        C588   1.385       .  A
C581        C589   1.369       .  A
C581        C592   1.377   1_545  A
C582        C590   1.391       .  A
C582        C593   1.409       .  A
C583       C1616   1.381       .  A
C583        H595   1.082       .  S
C584       C1615   1.381       .  A
C584        H596   1.081       .  S
C585       C1618   1.380       .  A
C585        H597   1.082       .  S
C586       C1617   1.380       .  A
C586        H598   1.082       .  S
C587        H599   1.081       .  S
C588        H600   1.082       .  S
C589        H601   1.081       .  S
C590        H602   1.061       .  S
C591        C963   1.460       .  S
C592        C952   1.476       .  S
C593        C938   1.470       .  S
C594        C924   1.471       .  S
O605        C616   1.311       .  A
O606        C617   1.308       .  A
O606       Eu640   2.549   1_665  S
O607        C618   1.279       .  A
O607       Eu613   2.407   1_456  S
O608        C619   1.287       .  A
O608      Eu1645   2.432       .  S
O609        C619   1.277       .  A
O610        C618   1.281       .  A
O611        C617   1.292       .  A
O611       Eu613   2.463       .  S
O612        C616   1.293       .  A
O612       Eu613   2.462   1_556  S
Eu613      O1640   2.433       .  S
Eu613      O1655   2.358   1_554  S
Eu613       O615   2.341   1_654  S
Eu613      O1646   2.343       .  S
Eu613       O621   2.356   1_655  S
O614      Eu1645   2.342       .  S
O614      Eu1672   2.378   1_565  S
C616        C854   1.535       .  S
C617        C728   1.508   1_655  S
C618        C753   1.483       .  S
C619        C770   1.472       .  S
H620        O621   0.964       .  S
O621       Eu640   2.405   1_565  S
H622        O623   0.965       .  S
O623      Eu1645   2.358   1_556  S
O623      Eu1157   2.408       .  S
O624       C1679   1.312       .  A
O625        C648   1.319       .  A
O625       Eu641   2.606   1_455  S
O626        C649   1.290       .  A
O627        C650   1.288       .  A
O628        C651   1.293       .  A
O628       Eu643   2.461       .  S
O629        C652   1.289       .  A
O629       Eu642   2.456       .  S
O630        C653   1.286       .  A
O630       Eu644   2.434   1_554  S
O631        C654   1.279       .  A
O631      Eu1676   2.399       .  S
O632        C653   1.269   1_556  A
O632       Eu642   2.335       .  S
O633        C654   1.287       .  A
O633       Eu643   2.447       .  S
O634        C649   1.317       .  A
O634       Eu640   2.600   1_565  S
O635        C652   1.311       .  A
O635       Eu641   2.567   1_455  S
O636        C651   1.307       .  A
O636      Eu1673   2.549       .  S
O637        C650   1.318       .  A
O637      Eu1672   2.595       .  S
O638        C647   1.287       .  A
O638      Eu1676   2.457   1_554  S
O639       C1680   1.283       .  A
O639      Eu1676   2.407       .  S
Eu640      O1669   2.595   1_455  S
Eu640      O1646   2.378   1_445  S
Eu640      O1174   2.388   1_455  S
Eu641      O1668   2.549       .  S
Eu641      O1139   2.411       .  S
Eu641      O1677   2.362       .  S
Eu641       O656   2.394   1_655  S
Eu642       O656   2.354       .  S
Eu642       O646   2.356   1_556  S
Eu643       O645   2.317       .  S
Eu643       O658   2.348   1_556  S
Eu644      O1663   2.401   1_455  S
Eu644      O1670   2.455   1_556  S
Eu644      O1671   2.406       .  S
Eu644      O1677   2.343   1_455  S
Eu644       O656   2.357       .  S
Eu644      O1690   2.336   1_456  S
Eu644       O646   2.319   1_556  S
O645      Eu1673   2.361       .  S
O645      Eu1676   2.344       .  S
C647       O1656   1.312       .  A
C647       C1774   1.569       .  S
C648       O1671   1.283       .  A
C648        C840   1.543       .  S
C649        C700   1.562       .  S
C650        C714   1.529       .  S
C651        C812   1.527       .  S
C652        C826   1.523       .  S
C653        C795   1.438       .  S
C654        C784   1.460       .  S
H655        O656   0.966       .  S
H657        O658   0.965       .  S
O658      Eu1156   2.389       .  S
O658      Eu1676   2.336   1_554  S
N659        H691   1.041       .  S
N659        C664   1.335       .  A
N659        C663   1.332       .  A
N660        C667   1.341       .  A
N660        C668   1.331       .  A
N661        H692   1.043   1_554  S
N661        C666   1.335       .  A
N661        C665   1.341       .  A
N662        C669   1.336       .  A
N662        C670   1.340   1_554  A
C663        C671   1.381       .  A
C663        C679   1.387       .  A
C664        C680   1.395       .  A
C664        C672   1.389       .  A
C665        C673   1.380       .  A
C665        C682   1.383       .  A
C666        C681   1.401   1_554  A
C666        C674   1.388       .  A
C667        C679   1.390       .  A
C667        C675   1.379   1_554  A
C668        C682   1.396       .  A
C668        C676   1.387   1_554  A
C669        C677   1.391   1_554  A
C669        C680   1.412       .  A
C670        C678   1.376       .  A
C670        C681   1.393       .  A
C671        C672   1.382       .  A
C671        H683   1.080       .  S
C672        H684   1.077       .  S
C673        C674   1.370       .  A
C673        H685   1.082       .  S
C674        H686   1.073       .  S
C675        C676   1.378       .  A
C675        H687   1.079       .  S
C676        H688   1.079       .  S
C677        C678   1.380       .  A
C677        H689   1.080       .  S
C678        H690   1.078       .  S
C679        C756   1.470   1_554  S
C680        C767   1.461       .  S
C681        C781   1.467       .  S
C682        C798   1.454       .  S
C693        C725   1.625   1_455  S
C693        C739   1.645       .  S
C693        C980   1.655       .  S
C693       C2026   1.631   1_455  S
C694       C1019   1.645       .  S
C695        C837   1.631       .  S
C695        C851   1.639       .  S
C695       C1900   1.642       .  S
C695        C882   1.637   1_655  S
C696        C809   1.605       .  S
C696        C823   1.645       .  S
C696        C896   1.640       .  S
C697        C702   1.455       .  A
C698        C699   1.437       .  A
C698        C703   1.441       .  S
C699        C706   1.452       .  S
C700        C701   1.413       .  A
C701        C702   1.442       .  A
C701        C704   1.447       .  S
C702        C705   1.449       .  S
C703        N710   1.155       .  T
C704        N709   1.156       .  T
C705        N707   1.156       .  T
C706        N708   1.157       .  T
C711        C716   1.464   1_545  A
C712        C713   1.439       .  A
C712        C717   1.450       .  S
C713        C720   1.447       .  S
C714        C715   1.395   1_545  A
C715        C716   1.424       .  A
C715        C718   1.447       .  S
C716        C719   1.448       .  S
C717        N724   1.157       .  T
C718        N723   1.153       .  T
C719        N721   1.158       .  T
C720        N722   1.156       .  T
C725        C726   1.448   1_655  A
C725       C1762   1.455       .  A
C726        C727   1.430       .  A
C726        C731   1.452       .  S
C727        C728   1.412       .  A
C727        C734   1.448       .  S
C728       C1761   1.389   1_455  A
C729       C1760   1.389       .  A
C729        C730   1.412       .  A
C729        C732   1.449       .  S
C730       C1757   1.455       .  A
C730        C733   1.444       .  S
C731        N738   1.157       .  T
C732        N737   1.157       .  T
C733        N735   1.158       .  T
C734        N736   1.156       .  T
C739        C740   1.455       .  A
C739       C1776   1.435       .  A
C740        C741   1.444       .  A
C740        C745   1.454   1_455  S
C741        C742   1.419       .  A
C741        C748   1.450       .  S
C742       C1679   1.568       .  S
C742       C1775   1.436       .  A
C743       C1774   1.436       .  A
C743        C744   1.435       .  A
C743        C746   1.457       .  S
C744       C1771   1.435       .  A
C744        C747   1.446       .  S
C745        N752   1.158       .  T
C746        N751   1.159       .  T
C747        N749   1.156       .  T
C748        N750   1.157   1_455  T
C753        C754   1.424       .  A
C753        C758   1.422       .  A
C754        C755   1.394       .  A
C754        C759   1.451       .  S
C755        C756   1.404       .  A
C755        C762   1.454       .  S
C756        C757   1.396   1_556  A
C757        C758   1.401   1_554  A
C757        C760   1.437       .  S
C758        C761   1.449       .  S
C759        N766   1.157       .  T
C760        N765   1.152       .  T
C761        N763   1.157   1_455  T
C762        N764   1.157       .  T
C767        C768   1.400       .  A
C767        C772   1.400       .  A
C768        C769   1.396       .  A
C768        C773   1.454       .  S
C769        C770   1.421       .  A
C769        C776   1.450       .  S
C770        C771   1.422       .  A
C771        C772   1.398       .  A
C771        C774   1.451       .  S
C772        C775   1.447       .  S
C773        N780   1.157       .  T
C774        N779   1.158       .  T
C775        N777   1.155       .  T
C776        N778   1.156       .  T
C781        C782   1.409       .  A
C781        C786   1.402   1_556  A
C782        C783   1.402       .  A
C782        C787   1.452       .  S
C783        C784   1.407       .  A
C783        C790   1.448       .  S
C784        C785   1.408   1_556  A
C785        C786   1.399       .  A
C785        C788   1.445       .  S
C786        C789   1.450       .  S
C787        N794   1.157       .  T
C788        N793   1.155       .  T
C789        N791   1.157       .  T
C790        N792   1.156       .  T
C795        C796   1.408       .  A
C795        C800   1.408   1_554  A
C796        C797   1.393       .  A
C796        C801   1.448       .  S
C797        C798   1.405       .  A
C797        C804   1.453       .  S
C798        C799   1.402       .  A
C799        C800   1.391   1_554  A
C799        C802   1.450   1_554  S
C800        C803   1.444       .  S
C801        N808   1.156       .  T
C802        N807   1.157       .  T
C803        N805   1.153       .  T
C804        N806   1.157       .  T
C809        C814   1.458       .  A
C810        C811   1.419       .  A
C810        C815   1.443       .  S
C811        C818   1.448       .  S
C812        C813   1.408       .  A
C813        C814   1.431       .  A
C813        C816   1.449       .  S
C814        C817   1.452       .  S
C815        N822   1.157       .  T
C816        N821   1.158       .  T
C817        N819   1.157       .  T
C818        N820   1.156       .  T
C823        C828   1.461       .  A
C824        C825   1.431       .  A
C824        C829   1.453       .  S
C825        C832   1.450       .  S
C826        C827   1.400       .  A
C827        C828   1.435       .  A
C827        C830   1.459       .  S
C828        C831   1.445       .  S
C829        N836   1.158       .  T
C830        N835   1.158       .  T
C831        N833   1.158       .  T
C832        N834   1.158       .  T
C837        C838   1.437   1_655  A
C837       C1874   1.445       .  A
C838        C839   1.434       .  A
C838        C843   1.449       .  S
C839        C840   1.430       .  A
C839        C846   1.451       .  S
C840       C1873   1.408   1_455  A
C841       C1872   1.408       .  A
C841        C842   1.429       .  A
C841        C844   1.443       .  S
C842       C1869   1.445       .  A
C842        C845   1.448       .  S
C843        N850   1.158       .  T
C844        N849   1.154       .  T
C845        N847   1.157       .  T
C846        N848   1.156       .  T
C851       C1884   1.440       .  A
C851        C856   1.452   1_655  A
C852       C1883   1.440       .  A
C852        C853   1.433       .  A
C852        C857   1.442       .  S
C853       C1886   1.414       .  A
C853        C860   1.449       .  S
C854       C1885   1.414       .  A
C854        C855   1.406   1_655  A
C855        C856   1.431       .  A
C855        C858   1.451       .  S
C856        C859   1.448       .  S
C857        N864   1.155       .  T
C858        N863   1.157       .  T
C859        N861   1.158       .  T
C860        N862   1.156       .  T
C865        C866   1.430       .  A
C865        C870   1.404       .  A
C866        C867   1.442       .  A
C866        C871   1.453       .  S
C867        C868   1.440       .  A
C867        C874   1.444       .  S
C868        C869   1.445       .  A
C868       C1727   1.642       .  S
C869        C870   1.424       .  A
C869        C872   1.446       .  S
C870        C873   1.445       .  S
C871        N878   1.158       .  T
C872        N877   1.158       .  T
C873        N875   1.158       .  T
C874        N876   1.155       .  T
C879        C880   1.428       .  A
C879        C884   1.406       .  A
C880        C881   1.439       .  A
C880        C885   1.450       .  S
C881        C882   1.437       .  A
C881        C888   1.446       .  S
C882        C883   1.448       .  A
C883        C884   1.424       .  A
C883        C886   1.444       .  S
C884        C887   1.450       .  S
C885        N892   1.156       .  T
C886        N891   1.156       .  T
C887        N889   1.158       .  T
C888        N890   1.156   1_455  T
C893        C894   1.412       .  A
C893        C898   1.417       .  A
C894        C895   1.438       .  A
C894        C899   1.452       .  S
C895        C896   1.467       .  A
C895        C902   1.454       .  S
C896        C897   1.417       .  A
C897        C898   1.417       .  A
C897        C900   1.434       .  S
C898        C901   1.446       .  S
C899        N906   1.158       .  T
C901        N903   1.157       .  T
C902        N904   1.158       .  T
C907        C908   1.411       .  A
C907        C912   1.390       .  A
C908        C909   1.438       .  A
C908        C913   1.450       .  S
C909        C910   1.454       .  A
C909        C916   1.454       .  S
C910        C911   1.473       .  A
C911        C912   1.425       .  A
C911        C914   1.449       .  S
C912        C915   1.456       .  S
C913        N920   1.157       .  T
C914        N919   1.157       .  T
C915        N917   1.155       .  T
C916        N918   1.158       .  T
C921        C922   1.417       .  A
C921        C926   1.419       .  A
C922        C923   1.404       .  A
C922        C927   1.442       .  S
C923        C924   1.401       .  A
C923        C930   1.444       .  S
C924        C925   1.405       .  A
C925        C926   1.401       .  A
C925        C928   1.452       .  S
C926        C929   1.452       .  S
C927        N934   1.153       .  T
C928        N933   1.157       .  T
C929        N931   1.157       .  T
C930        N932   1.154       .  T
C935        C936   1.409       .  A
C935        C940   1.413       .  A
C936        C937   1.396       .  A
C936        C941   1.448       .  S
C937        C938   1.405       .  A
C937        C944   1.448   1_455  S
C938        C939   1.406       .  A
C939        C940   1.403       .  A
C939        C942   1.450       .  S
C940        C943   1.445       .  S
C941        N948   1.157       .  T
C942        N947   1.157       .  T
C943        N945   1.155       .  T
C944        N946   1.156       .  T
C949        C950   1.413       .  A
C949        C954   1.421       .  A
C950        C951   1.400       .  A
C950        C955   1.446       .  S
C951        C952   1.405       .  A
C951        C958   1.447       .  S
C952        C953   1.397       .  A
C953        C954   1.392       .  A
C953        C956   1.442       .  S
C954        C957   1.449       .  S
C955        N962   1.156       .  T
C956        N961   1.155   1_565  T
C957        N959   1.155       .  T
C958        N960   1.156       .  T
C963        C964   1.406       .  A
C963        C968   1.397       .  A
C964        C965   1.394       .  A
C964        C969   1.453       .  S
C965        C966   1.414       .  A
C965        C972   1.447       .  S
C966        C967   1.426       .  A
C967        C968   1.396       .  A
C967        C970   1.451       .  S
C968        C971   1.451       .  S
C969        N976   1.157       .  T
C970        N975   1.157       .  T
C971        N973   1.157       .  T
C972        N974   1.156       .  T
C977        C978   1.421       .  A
C977        C982   1.410       .  A
C978        C979   1.453       .  A
C978        C983   1.449       .  S
C979        C980   1.477       .  A
C979        C986   1.448       .  S
C980        C981   1.432       .  A
C981        C982   1.412       .  A
C981        C984   1.449       .  S
C982        C985   1.446       .  S
C983        N990   1.157       .  T
C984        N989   1.158       .  T
C985        N987   1.158       .  T
C986        N988   1.157       .  T
C991        C992   1.418       .  A
C991        C996   1.398       .  A
C992        C993   1.435       .  A
C992        C997   1.449       .  S
C993        C994   1.436       .  A
C993       C1000   1.443       .  S
C994        C995   1.460       .  A
C994       C1725   1.631       .  S
C995        C996   1.431       .  A
C995        C998   1.440       .  S
C996        C999   1.454       .  S
C997       N1004   1.155       .  T
C998       N1003   1.154       .  T
C999       N1001   1.157       .  T
C1000      N1002   1.157       .  T
C1005      C1006   1.435       .  A
C1005      C1010   1.417       .  A
C1006      C1007   1.431       .  A
C1006      C1011   1.450       .  S
C1007      C1008   1.433       .  A
C1007      C1014   1.447       .  S
C1008      C1009   1.450       .  A
C1009      C1010   1.437       .  A
C1009      C1012   1.444       .  S
C1010      C1013   1.451       .  S
C1011      N1018   1.156       .  T
C1012      N1017   1.154       .  T
C1013      N1015   1.158       .  T
C1019      C1020   1.452       .  A
C1019      C1024   1.461       .  A
C1020      C1021   1.431       .  A
C1020      C1025   1.450       .  S
C1021      C1022   1.404       .  A
C1021      C1028   1.442       .  S
C1022      C1023   1.397       .  A
C1023      C1024   1.424       .  A
C1023      C1026   1.454       .  S
C1024      C1027   1.443       .  S
C1025      N1032   1.158       .  T
C1026      N1031   1.157       .  T
C1027      N1029   1.156       .  T
C1028      N1030   1.154       .  T
O1033      C1044   1.312       .  A
O1033     Eu1069   2.571       .  S
O1034      C1045   1.314       .  A
O1034     Eu1068   2.576       .  S
O1035      C1046   1.287       .  A
O1035     Eu1041   2.442       .  S
O1036      C1047   1.294       .  A
O1036     Eu1041   2.477       .  S
O1037      C1047   1.274       .  A
O1037     Eu1071   2.377       .  S
O1038      C1046   1.282       .  A
O1038     Eu1070   2.418       .  S
O1039      C1045   1.293       .  A
O1039     Eu1041   2.461       .  S
O1040      C1044   1.290       .  A
O1040     Eu1041   2.448       .  S
Eu1041     O1051   2.364       .  S
Eu1041     O1043   2.350       .  S
Eu1041     O1042   2.339       .  S
Eu1041     O1049   2.356       .  S
O1042     Eu1071   2.354       .  S
O1042     Eu1068   2.379       .  S
O1043     Eu1069   2.370       .  S
O1043     Eu1070   2.324       .  S
C1044      C1538   1.515       .  S
C1045      C1409   1.534       .  S
C1046      C1437   1.485       .  S
C1047      C1451   1.461       .  S
H1048      O1049   0.965       .  S
O1049     Eu1070   2.329       .  S
O1049     Eu1068   2.400       .  S
H1050      O1051   0.966       .  S
O1051     Eu1069   2.411       .  S
O1051     Eu1071   2.361       .  S
O1052      C1075   1.315       .  A
O1052     Eu1068   2.585       .  S
O1053      C1076   1.314       .  A
O1053     Eu1069   2.587       .  S
O1054      C1077   1.286       .  A
O1054     Eu1070   2.432       .  S
O1055      C1078   1.289       .  A
O1055     Eu1071   2.447       .  S
O1056      C1079   1.288       .  A
O1056     Eu1071   2.450       .  S
O1057      C1080   1.286       .  A
O1057     Eu1070   2.435       .  S
O1058      C1081   1.288       .  A
O1058     Eu1072   2.447       .  S
O1059      C1082   1.271       .  A
O1059     Eu1072   2.361       .  S
O1060      C1081   1.270       .  A
O1060     Eu1070   2.361       .  S
O1061      C1082   1.284       .  A
O1061     Eu1071   2.431       .  S
O1062      C1077   1.318       .  A
O1062     Eu1068   2.605       .  S
O1063      C1080   1.315       .  A
O1063     Eu1069   2.587       .  S
O1064      C1079   1.312       .  A
O1064     Eu1069   2.579       .  S
O1065      C1078   1.315       .  A
O1065     Eu1068   2.587       .  S
O1066      C1075   1.288       .  A
O1066     Eu1072   2.455       .  S
O1067      C1076   1.290       .  A
O1067     Eu1072   2.451       .  S
Eu1068     O1086   2.399       .  S
Eu1068     O1074   2.356       .  S
Eu1069     O1073   2.356       .  S
Eu1069     O1084   2.404       .  S
Eu1070     O1084   2.357       .  S
Eu1070     O1074   2.338       .  S
Eu1071     O1073   2.323       .  S
Eu1071     O1086   2.345       .  S
Eu1072     O1073   2.338       .  S
Eu1072     O1084   2.344       .  S
Eu1072     O1086   2.357       .  S
Eu1072     O1074   2.321       .  S
C1075      C1423   1.526       .  S
C1076      C1521   1.559       .  S
C1077      C1381   1.547       .  S
C1078      C1395   1.543       .  S
C1079      C1493   1.525       .  S
C1080      C1507   1.528       .  S
C1081      C1482   1.476       .  S
C1082      C1465   1.463       .  S
H1083      O1084   0.966       .  S
H1085      O1086   0.965       .  S
N1087      H1119   1.045       .  S
N1087      C1091   1.336       .  A
N1088      C1611   1.332       .  A
N1088      C1096   1.336       .  A
N1089      H1120   1.042       .  S
N1089      C1093   1.344       .  A
N1090      C1613   1.347       .  A
N1090      C1098   1.336       .  A
C1091      C1099   1.388       .  A
C1091      C1107   1.389   1_455  A
C1092      C1108   1.381       .  A
C1092      C1100   1.380       .  A
C1093      C1101   1.388       .  A
C1093      C1110   1.413       .  A
C1094      C1109   1.403       .  A
C1094      C1102   1.386       .  A
C1095      N1604   1.332       .  A
C1095      C1107   1.405       .  A
C1095      C1103   1.389       .  A
C1096      C1110   1.399   1_565  A
C1096      C1104   1.385       .  A
C1097      N1606   1.347       .  A
C1097      C1105   1.370       .  A
C1097      C1108   1.378       .  A
C1098      C1106   1.390       .  A
C1098      C1109   1.408       .  A
C1099      H1111   1.082       .  S
C1100      H1112   1.081       .  S
C1101      H1113   1.082       .  S
C1102      H1114   1.082       .  S
C1103      C1620   1.386       .  A
C1103      H1115   1.081       .  S
C1104      C1619   1.385       .  A
C1104      H1116   1.082       .  S
C1105      C1622   1.360       .  A
C1105      H1117   1.081       .  S
C1106      C1621   1.358       .  A
C1106      H1118   1.060       .  S
C1107      C1479   1.460       .  S
C1108      C1468   1.473       .  S
C1109      C1454   1.474       .  S
C1110      C1440   1.471       .  S
O1121      C1132   1.312       .  A
O1121     Eu1673   2.572       .  S
O1122      C1133   1.309       .  A
O1122     Eu1156   2.554       .  S
O1123      C1134   1.280       .  A
O1123     Eu1129   2.415   1_556  S
O1124      C1135   1.289       .  A
O1125      C1135   1.277       .  A
O1125     Eu1675   2.393   1_554  S
O1126      C1134   1.280       .  A
O1126     Eu1674   2.410       .  S
O1127      C1133   1.293       .  A
O1127     Eu1129   2.467       .  S
O1128      C1132   1.293       .  A
O1128     Eu1129   2.463   1_556  S
Eu1129     O1131   2.342   1_554  S
Eu1129     O1137   2.358       .  S
O1130     Eu1675   2.357   1_554  S
O1131     Eu1673   2.365       .  S
O1131     Eu1674   2.313       .  S
C1132      C1370   1.538       .  S
C1133      C1244   1.511       .  S
C1134      C1269   1.484       .  S
C1135      C1286   1.475       .  S
H1136      O1137   0.964       .  S
O1137     Eu1674   2.317   1_554  S
O1137     Eu1156   2.406       .  S
H1138      O1139   0.965       .  S
O1139     Eu1675   2.364       .  S
O1140     Eu1672   2.582       .  S
O1141      C1164   1.317       .  A
O1141     Eu1157   2.599   1_545  S
O1142      C1165   1.290       .  A
O1142     Eu1674   2.460   1_554  S
O1143      C1166   1.288       .  A
O1143     Eu1675   2.439   1_554  S
O1144      C1167   1.293       .  A
O1144     Eu1159   2.464       .  S
O1145      C1168   1.288       .  A
O1145     Eu1158   2.453       .  S
O1146      C1169   1.288       .  A
O1146     Eu1160   2.439   1_554  S
O1147      C1170   1.280       .  A
O1148      C1169   1.269   1_556  A
O1148     Eu1158   2.339   1_545  S
O1149      C1170   1.287       .  A
O1149     Eu1159   2.448       .  S
O1150      C1165   1.317       .  A
O1150     Eu1156   2.600       .  S
O1151      C1168   1.312       .  A
O1151     Eu1157   2.570       .  S
O1152      C1167   1.308       .  A
O1153      C1166   1.319       .  A
O1154      C1163   1.288       .  A
Eu1156     O1656   2.587       .  S
Eu1156     O1678   2.361       .  S
Eu1157     O1637   2.562       .  S
Eu1157     O1647   2.366       .  S
Eu1157     O1172   2.395   1_565  S
Eu1158     O1642   2.413       .  S
Eu1158     O1658   2.463   1_556  S
Eu1158     O1647   2.315       .  S
Eu1158     O1653   2.316   1_556  S
Eu1158     O1172   2.354   1_565  S
Eu1158     O1162   2.357   1_566  S
Eu1159     O1641   2.393   1_546  S
Eu1159     O1659   2.440   1_556  S
Eu1159     O1646   2.357   1_546  S
Eu1159     O1655   2.364   1_545  S
Eu1159     O1161   2.316       .  S
Eu1159     O1174   2.352   1_556  S
Eu1160     O1172   2.356       .  S
Eu1160     O1162   2.318   1_556  S
O1162     Eu1672   2.361       .  S
C1164      C1356   1.540       .  S
C1165      C1216   1.561       .  S
C1166      C1230   1.531       .  S
C1167      C1328   1.529       .  S
C1168      C1342   1.523       .  S
C1169      C1311   1.441       .  S
C1170      C1300   1.460       .  S
H1171      O1172   0.966       .  S
H1173      O1174   0.965       .  S
N1175      H1207   1.041       .  S
N1175      C1180   1.337       .  A
N1175      C1179   1.332       .  A
N1176      C1183   1.341       .  A
N1176      C1184   1.331       .  A
N1177      H1208   1.042       .  S
N1177      C1182   1.334       .  A
N1177      C1181   1.340       .  A
N1178      C1185   1.333       .  A
N1178      C1186   1.338   1_554  A
C1179      C1187   1.380       .  A
C1179      C1195   1.389       .  A
C1180      C1196   1.396       .  A
C1180      C1188   1.388       .  A
C1181      C1189   1.381       .  A
C1181      C1198   1.384       .  A
C1182      C1197   1.399   1_554  A
C1182      C1190   1.387       .  A
C1183      C1195   1.390       .  A
C1183      C1191   1.379   1_554  A
C1184      C1198   1.398       .  A
C1184      C1192   1.388   1_554  A
C1185      C1193   1.390   1_554  A
C1185      C1196   1.408       .  A
C1186      C1194   1.376       .  A
C1186      C1197   1.389       .  A
C1187      C1188   1.382       .  A
C1187      H1199   1.079       .  S
C1188      H1200   1.077       .  S
C1189      C1190   1.373       .  A
C1189      H1201   1.082       .  S
C1190      H1202   1.074       .  S
C1191      C1192   1.378       .  A
C1191      H1203   1.079       .  S
C1192      H1204   1.079       .  S
C1193      C1194   1.379       .  A
C1193      H1205   1.080       .  S
C1194      H1206   1.079       .  S
C1195      C1272   1.470   1_554  S
C1196      C1283   1.461       .  S
C1197      C1297   1.464       .  S
C1198      C1314   1.453       .  S
C1209      C1241   1.625       .  S
C1209      C1255   1.645       .  S
C1209      C1496   1.654       .  S
C1210      C1729   1.642   1_545  S
C1210      C1743   1.654       .  S
C1210      C2040   1.629   1_545  S
C1210      C1535   1.645       .  S
C1211      C1353   1.628       .  S
C1211      C1367   1.637       .  S
C1211      C1398   1.636       .  S
C1212      C1325   1.604       .  S
C1212      C1339   1.645       .  S
C1212      C1412   1.638   1_565  S
C1212      C1942   1.660       .  S
C1213      C1730   1.438       .  A
C1213      C1218   1.456       .  A
C1213      C1726   1.643       .  S
C1214      C1729   1.438       .  A
C1214      C1215   1.437       .  A
C1214      C1219   1.440   1_565  S
C1215      C1732   1.429       .  A
C1215      C1222   1.452       .  S
C1216      C1731   1.429       .  A
C1216      C1217   1.412       .  A
C1217      C1218   1.442       .  A
C1217      C1220   1.448       .  S
C1218      C1221   1.448       .  S
C1219      N1226   1.155       .  T
C1220      N1225   1.156       .  T
C1221      N1223   1.156       .  T
C1222      N1224   1.157       .  T
C1227      C1744   1.452       .  A
C1227      C1232   1.463       .  A
C1227      C1726   1.654       .  S
C1228      C1743   1.452       .  A
C1228      C1229   1.438       .  A
C1228      C1233   1.450       .  S
C1229      C1746   1.412       .  A
C1229      C1236   1.446       .  S
C1230      C1745   1.412       .  A
C1230      C1231   1.396       .  A
C1231      C1232   1.424       .  A
C1231      C1234   1.445       .  S
C1232      C1235   1.449       .  S
C1233      N1240   1.157       .  T
C1234      N1239   1.153       .  T
C1235      N1237   1.158       .  T
C1236      N1238   1.156       .  T
C1241      C1242   1.449       .  A
C1242      C1243   1.431       .  A
C1242      C1247   1.453       .  S
C1243      C1244   1.412       .  A
C1243      C1250   1.446       .  S
C1245      C1246   1.413       .  A
C1245      C1248   1.448       .  S
C1246      C1249   1.444       .  S
C1247      N1254   1.157       .  T
C1248      N1253   1.157       .  T
C1249      N1251   1.158       .  T
C1250      N1252   1.156       .  T
C1255      C1256   1.455       .  A
C1256      C1257   1.444       .  A
C1256      C1261   1.455       .  S
C1257      C1258   1.420       .  A
C1257      C1264   1.450       .  S
C1259      C1260   1.434       .  A
C1259      C1262   1.457       .  S
C1260      C1263   1.446   1_455  S
C1261      N1268   1.158       .  T
C1262      N1267   1.159       .  T
C1263      N1265   1.156       .  T
C1264      N1266   1.157       .  T
C1269      C1270   1.424       .  A
C1269      C1274   1.421       .  A
C1270      C1271   1.395       .  A
C1270      C1275   1.450       .  S
C1271      C1272   1.404       .  A
C1271      C1278   1.454       .  S
C1272      C1273   1.396   1_556  A
C1273      C1274   1.401   1_554  A
C1273      C1276   1.437       .  S
C1274      C1277   1.449       .  S
C1275      N1282   1.157       .  T
C1276      N1281   1.152       .  T
C1277      N1279   1.157       .  T
C1278      N1280   1.158       .  T
C1283      C1284   1.401       .  A
C1283      C1288   1.400       .  A
C1284      C1285   1.397       .  A
C1284      C1289   1.454       .  S
C1285      C1286   1.421       .  A
C1285      C1292   1.449       .  S
C1286      C1287   1.422       .  A
C1287      C1288   1.399       .  A
C1287      C1290   1.450       .  S
C1288      C1291   1.446       .  S
C1289      N1296   1.157       .  T
C1290      N1295   1.158       .  T
C1291      N1293   1.155       .  T
C1292      N1294   1.156       .  T
C1297      C1298   1.408       .  A
C1297      C1302   1.398   1_556  A
C1298      C1299   1.403       .  A
C1298      C1303   1.451       .  S
C1299      C1300   1.408       .  A
C1299      C1306   1.448       .  S
C1300      C1301   1.409   1_556  A
C1301      C1302   1.397       .  A
C1301      C1304   1.444       .  S
C1302      C1305   1.449       .  S
C1303      N1310   1.157       .  T
C1304      N1309   1.155       .  T
C1305      N1307   1.157       .  T
C1306      N1308   1.156       .  T
C1311      C1312   1.409       .  A
C1311      C1316   1.409   1_554  A
C1312      C1313   1.393       .  A
C1312      C1317   1.448       .  S
C1313      C1314   1.404       .  A
C1313      C1320   1.453       .  S
C1314      C1315   1.401       .  A
C1315      C1316   1.393   1_554  A
C1315      C1318   1.450   1_554  S
C1316      C1319   1.443       .  S
C1317      N1324   1.155       .  T
C1318      N1323   1.157       .  T
C1319      N1321   1.153       .  T
C1320      N1322   1.157       .  T
C1325      C1842   1.431       .  A
C1325      C1330   1.457   1_565  A
C1326      C1841   1.432       .  A
C1326      C1327   1.419       .  A
C1326      C1331   1.442       .  S
C1327      C1844   1.411       .  A
C1327      C1334   1.449       .  S
C1328      C1843   1.413   1_545  A
C1328      C1329   1.409       .  A
C1329      C1330   1.431       .  A
C1329      C1332   1.449       .  S
C1330      C1333   1.453       .  S
C1331      N1338   1.157       .  T
C1332      N1337   1.158       .  T
C1333      N1335   1.157       .  T
C1334      N1336   1.157       .  T
C1339      C1856   1.450       .  A
C1339      C1344   1.461   1_565  A
C1340      C1855   1.449       .  A
C1340      C1341   1.430       .  A
C1340      C1345   1.452       .  S
C1341      C1858   1.408       .  A
C1341      C1348   1.449       .  S
C1342      C1857   1.409       .  A
C1342      C1343   1.400   1_565  A
C1343      C1344   1.435       .  A
C1343      C1346   1.459       .  S
C1344      C1347   1.445       .  S
C1345      N1352   1.158       .  T
C1346      N1351   1.158       .  T
C1347      N1349   1.158       .  T
C1348      N1350   1.158       .  T
C1353      C1354   1.436       .  A
C1354      C1355   1.432       .  A
C1354      C1359   1.449       .  S
C1355      C1356   1.430       .  A
C1355      C1362   1.452       .  S
C1357      C1358   1.428       .  A
C1357      C1360   1.444       .  S
C1358      C1361   1.448       .  S
C1359      N1366   1.157       .  T
C1360      N1365   1.154       .  T
C1361      N1363   1.157       .  T
C1362      N1364   1.156       .  T
C1367      C1372   1.451       .  A
C1368      C1369   1.433       .  A
C1368      C1373   1.444       .  S
C1369      C1376   1.449       .  S
C1370      C1371   1.408       .  A
C1371      C1372   1.431       .  A
C1371      C1374   1.450       .  S
C1372      C1375   1.449       .  S
C1373      N1380   1.155       .  T
C1374      N1379   1.157       .  T
C1375      N1377   1.158       .  T
C1376      N1378   1.156       .  T
C1381      C1382   1.429       .  A
C1381      C1386   1.405       .  A
C1382      C1383   1.440       .  A
C1382      C1387   1.453       .  S
C1383      C1384   1.440       .  A
C1383      C1390   1.444       .  S
C1384      C1385   1.447       .  A
C1385      C1386   1.426       .  A
C1385      C1388   1.446       .  S
C1386      C1389   1.445       .  S
C1387      N1394   1.158       .  T
C1388      N1393   1.158       .  T
C1389      N1391   1.158       .  T
C1390      N1392   1.155   1_655  T
C1395      C1396   1.428       .  A
C1395      C1400   1.406       .  A
C1396      C1397   1.439       .  A
C1396      C1401   1.450       .  S
C1397      C1398   1.436       .  A
C1397      C1404   1.445       .  S
C1398      C1399   1.448       .  A
C1399      C1400   1.424       .  A
C1399      C1402   1.444       .  S
C1400      C1403   1.449       .  S
C1401      N1408   1.157       .  T
C1402      N1407   1.157       .  T
C1403      N1405   1.158       .  T
C1404      N1406   1.156       .  T
C1409      C1410   1.412       .  A
C1409      C1414   1.417       .  A
C1410      C1411   1.437       .  A
C1410      C1415   1.452       .  S
C1411      C1412   1.466       .  A
C1411      C1418   1.454       .  S
C1412      C1413   1.417       .  A
C1413      C1414   1.416       .  A
C1413      C1416   1.433       .  S
C1414      C1417   1.447       .  S
C1415      N1422   1.158       .  T
C1416      N1937   1.154   1_545  T
C1417      N1419   1.157       .  T
C1418      N1420   1.158       .  T
N1421      C1932   1.154       .  T
C1423      C1424   1.413       .  A
C1423      C1428   1.392       .  A
C1424      C1425   1.441       .  A
C1424      C1429   1.450       .  S
C1425      C1426   1.455       .  A
C1425      C1432   1.454       .  S
C1426      C1427   1.473       .  A
C1426      C1728   1.665       .  S
C1427      C1428   1.428       .  A
C1427      C1430   1.449       .  S
C1428      C1431   1.455       .  S
C1429      N1436   1.157       .  T
C1430      N1435   1.157       .  T
C1431      N1433   1.155       .  T
C1432      N1434   1.158       .  T
C1437      C1438   1.416       .  A
C1437      C1442   1.419       .  A
C1438      C1439   1.404       .  A
C1438      C1443   1.442       .  S
C1439      C1440   1.402       .  A
C1439      C1446   1.444       .  S
C1440      C1441   1.404       .  A
C1441      C1442   1.400       .  A
C1441      C1444   1.453       .  S
C1442      C1445   1.451       .  S
C1443      N1450   1.153       .  T
C1444      N1449   1.157       .  T
C1445      N1447   1.157       .  T
C1446      N1448   1.155   1_545  T
C1451      C1452   1.409       .  A
C1451      C1456   1.412       .  A
C1452      C1453   1.397       .  A
C1452      C1457   1.448       .  S
C1453      C1454   1.407       .  A
C1453      C1460   1.448       .  S
C1454      C1455   1.408       .  A
C1455      C1456   1.403       .  A
C1455      C1458   1.451       .  S
C1456      C1459   1.445       .  S
C1457      N1464   1.157       .  T
C1458      N1463   1.157       .  T
C1459      N1461   1.155       .  T
C1460      N1462   1.156       .  T
C1465      C1466   1.412       .  A
C1465      C1470   1.420       .  A
C1466      C1467   1.400       .  A
C1466      C1471   1.447       .  S
C1467      C1468   1.406       .  A
C1467      C1474   1.448       .  S
C1468      C1469   1.398       .  A
C1469      C1470   1.392       .  A
C1469      C1472   1.441       .  S
C1470      C1473   1.449       .  S
C1471      N1478   1.156       .  T
C1472      N1477   1.154       .  T
C1473      N1475   1.155       .  T
C1474      N1476   1.156       .  T
C1479      C1480   1.403       .  A
C1479      C1484   1.395       .  A
C1480      C1481   1.395       .  A
C1480      C1485   1.453       .  S
C1481      C1482   1.416       .  A
C1481      C1488   1.446       .  S
C1482      C1483   1.429       .  A
C1483      C1484   1.396       .  A
C1483      C1486   1.453       .  S
C1484      C1487   1.451       .  S
C1485      N1492   1.157       .  T
C1486      N1491   1.157       .  T
C1487      N1489   1.157   1_655  T
C1488      N1490   1.156       .  T
C1493      C1494   1.421       .  A
C1493      C1498   1.408       .  A
C1494      C1495   1.453       .  A
C1494      C1499   1.449       .  S
C1495      C1496   1.476       .  A
C1495      C1502   1.448       .  S
C1496      C1497   1.433       .  A
C1497      C1498   1.411       .  A
C1497      C1500   1.448       .  S
C1498      C1501   1.446       .  S
C1499      N1506   1.158       .  T
C1500      N1505   1.158       .  T
C1501      N1503   1.158       .  T
C1502      N1504   1.157       .  T
C1507      C1508   1.417       .  A
C1507      C1512   1.399       .  A
C1508      C1509   1.434       .  A
C1508      C1513   1.449       .  S
C1509      C1510   1.436       .  A
C1509      C1516   1.443       .  S
C1510      C1511   1.461       .  A
C1511      C1512   1.431       .  A
C1511      C1514   1.440       .  S
C1512      C1515   1.454       .  S
C1513      N1520   1.156       .  T
C1514      N1519   1.154       .  T
C1515      N1517   1.158       .  T
C1516      N1518   1.157   1_655  T
C1521      C1522   1.435       .  A
C1521      C1526   1.418       .  A
C1522      C1523   1.430       .  A
C1522      C1527   1.450       .  S
C1523      C1524   1.432       .  A
C1523      C1530   1.448       .  S
C1524      C1525   1.450       .  A
C1524      C1726   1.628       .  S
C1525      C1526   1.438       .  A
C1525      C1528   1.444       .  S
C1526      C1529   1.452       .  S
C1527      N1534   1.156       .  T
C1528      N1533   1.154       .  T
C1529      N1531   1.158       .  T
C1530      N2048   1.158       .  T
N1532      C2046   1.158   1_545  T
C1535      C1536   1.450       .  A
C1535      C1540   1.462       .  A
C1536      C1537   1.430       .  A
C1536      C1541   1.451       .  S
C1537      C1538   1.405       .  A
C1537      C1544   1.442       .  S
C1538      C1539   1.397       .  A
C1539      C1540   1.424       .  A
C1539      C1542   1.455       .  S
C1540      C1543   1.443       .  S
C1541      N1548   1.157       .  T
C1542      N1547   1.157       .  T
C1543      N1545   1.156       .  T
C1544      N1546   1.154       .  T
O1549      C1560   1.313       .  A
O1549     Eu1585   2.573       .  S
O1550      C1561   1.313       .  A
O1550     Eu1584   2.574       .  S
O1551      C1562   1.285       .  A
O1551     Eu1557   2.435       .  S
O1552      C1563   1.293       .  A
O1552     Eu1557   2.473       .  S
O1553      C1563   1.274       .  A
O1553     Eu1587   2.375       .  S
O1554      C1562   1.283       .  A
O1554     Eu1586   2.421       .  S
O1555      C1561   1.292       .  A
O1555     Eu1557   2.462       .  S
O1556      C1560   1.290       .  A
O1556     Eu1557   2.445       .  S
Eu1557     O1567   2.364       .  S
Eu1557     O1559   2.351       .  S
Eu1557     O1558   2.336       .  S
Eu1557     O1565   2.354       .  S
O1558     Eu1587   2.356       .  S
O1558     Eu1584   2.377       .  S
O1559     Eu1585   2.373       .  S
O1559     Eu1586   2.326       .  S
C1560      C2054   1.516       .  S
C1561      C1925   1.536       .  S
C1562      C1953   1.485       .  S
C1563      C1967   1.458       .  S
H1564      O1565   0.965       .  S
O1565     Eu1586   2.332       .  S
O1565     Eu1584   2.396       .  S
H1566      O1567   0.966       .  S
O1567     Eu1585   2.412       .  S
O1567     Eu1587   2.361       .  S
O1568      C1591   1.313       .  A
O1568     Eu1584   2.576       .  S
O1569      C1592   1.315       .  A
O1569     Eu1585   2.592       .  S
O1570      C1593   1.286       .  A
O1570     Eu1586   2.432       .  S
O1571      C1594   1.288       .  A
O1571     Eu1587   2.446       .  S
O1572      C1595   1.288       .  A
O1572     Eu1587   2.451       .  S
O1573      C1596   1.286       .  A
O1573     Eu1586   2.436       .  S
O1574      C1597   1.289       .  A
O1574     Eu1588   2.446       .  S
O1575      C1598   1.271       .  A
O1575     Eu1588   2.360       .  S
O1576      C1597   1.271       .  A
O1576     Eu1586   2.367       .  S
O1577      C1598   1.284       .  A
O1577     Eu1587   2.436       .  S
O1578      C1593   1.319       .  A
O1578     Eu1584   2.609       .  S
O1579      C1596   1.316       .  A
O1579     Eu1585   2.590       .  S
O1580      C1595   1.314       .  A
O1580     Eu1585   2.585       .  S
O1581      C1594   1.316       .  A
O1581     Eu1584   2.587       .  S
O1582      C1591   1.287       .  A
O1582     Eu1588   2.445       .  S
O1583      C1592   1.289       .  A
O1583     Eu1588   2.450       .  S
Eu1584     O1602   2.400       .  S
Eu1584     O1590   2.358       .  S
Eu1585     O1589   2.353       .  S
Eu1585     O1600   2.404       .  S
Eu1586     O1600   2.361       .  S
Eu1586     O1590   2.339       .  S
Eu1587     O1589   2.323       .  S
Eu1587     O1602   2.343       .  S
Eu1588     O1589   2.336       .  S
Eu1588     O1600   2.339       .  S
Eu1588     O1602   2.355       .  S
Eu1588     O1590   2.322       .  S
C1591      C1939   1.518       .  S
C1592      C2037   1.560       .  S
C1593      C1897   1.547       .  S
C1594      C1911   1.544       .  S
C1595      C2009   1.527       .  S
C1596      C2023   1.529       .  S
C1597      C1998   1.475       .  S
C1598      C1981   1.464       .  S
H1599      O1600   0.965       .  S
H1601      O1602   0.965       .  S
N1603      H1635   1.044       .  S
N1603      C1607   1.336       .  A
N1604      C1612   1.337       .  A
N1605      H1636   1.042       .  S
N1605      C1609   1.342       .  A
N1606      C1614   1.336       .  A
C1607      C1615   1.388       .  A
C1607      C1623   1.390   1_455  A
C1608      C1624   1.382       .  A
C1608      C1616   1.379       .  A
C1609      C1617   1.388       .  A
C1609      C1626   1.409       .  A
C1610      C1625   1.401       .  A
C1610      C1618   1.386       .  A
C1611      C1623   1.404       .  A
C1611      C1619   1.390       .  A
C1612      C1626   1.399       .  A
C1612      C1620   1.385       .  A
C1613      C1621   1.370       .  A
C1613      C1624   1.378   1_545  A
C1614      C1622   1.391       .  A
C1614      C1625   1.409       .  A
C1615      H1627   1.082       .  S
C1616      H1628   1.081       .  S
C1617      H1629   1.082       .  S
C1618      H1630   1.082       .  S
C1619      H1631   1.081       .  S
C1620      H1632   1.082       .  S
C1621      H1633   1.081       .  S
C1622      H1634   1.061       .  S
C1623      C1995   1.460       .  S
C1624      C1984   1.476       .  S
C1625      C1970   1.471       .  S
C1626      C1956   1.471       .  S
O1637      C1648   1.311       .  A
O1638      C1649   1.308       .  A
O1638     Eu1672   2.548   1_565  S
O1639      C1650   1.279       .  A
O1639     Eu1645   2.406   1_556  S
O1640      C1651   1.287       .  A
O1641      C1651   1.277       .  A
O1642      C1650   1.281       .  A
O1643      C1649   1.292       .  A
O1643     Eu1645   2.463       .  S
O1644      C1648   1.293       .  A
O1644     Eu1645   2.463   1_556  S
Eu1645     O1647   2.341   1_554  S
Eu1645     O1653   2.356       .  S
C1648      C1886   1.535       .  S
C1649      C1760   1.507       .  S
C1650      C1785   1.483       .  S
C1651      C1802   1.472       .  S
H1652      O1653   0.964       .  S
O1653     Eu1672   2.405   1_565  S
H1654      O1655   0.965       .  S
O1657      C1680   1.319       .  A
O1657     Eu1673   2.606       .  S
O1658      C1681   1.290       .  A
O1659      C1682   1.288       .  A
O1660      C1683   1.293       .  A
O1660     Eu1675   2.461       .  S
O1661      C1684   1.289       .  A
O1661     Eu1674   2.455       .  S
O1662      C1685   1.287       .  A
O1662     Eu1676   2.434   1_554  S
O1663      C1686   1.279       .  A
O1664      C1685   1.269   1_556  A
O1664     Eu1674   2.336       .  S
O1665      C1686   1.287       .  A
O1665     Eu1675   2.447       .  S
O1666      C1681   1.317       .  A
O1666     Eu1672   2.600   1_565  S
O1667      C1684   1.311       .  A
O1667     Eu1673   2.564       .  S
O1668      C1683   1.307       .  A
O1669      C1682   1.319       .  A
O1670      C1679   1.287       .  A
Eu1673     O1688   2.395       .  S
Eu1674     O1688   2.353       .  S
Eu1674     O1678   2.356   1_556  S
Eu1675     O1677   2.318       .  S
Eu1675     O1690   2.348   1_556  S
Eu1676     O1688   2.356       .  S
Eu1676     O1678   2.318   1_556  S
C1680      C1872   1.544       .  S
C1681      C1732   1.562       .  S
C1682      C1746   1.529       .  S
C1683      C1844   1.527       .  S
C1684      C1858   1.521       .  S
C1685      C1827   1.439       .  S
C1686      C1816   1.461       .  S
H1687      O1688   0.966       .  S
H1689      O1690   0.965       .  S
N1691      H1723   1.041       .  S
N1691      C1696   1.335       .  A
N1691      C1695   1.332       .  A
N1692      C1699   1.341       .  A
N1692      C1700   1.331       .  A
N1693      H1724   1.043   1_554  S
N1693      C1698   1.335       .  A
N1693      C1697   1.341       .  A
N1694      C1701   1.336       .  A
N1694      C1702   1.340   1_554  A
C1695      C1703   1.381       .  A
C1695      C1711   1.387       .  A
C1696      C1712   1.395       .  A
C1696      C1704   1.389       .  A
C1697      C1705   1.380       .  A
C1697      C1714   1.383       .  A
C1698      C1713   1.401   1_554  A
C1698      C1706   1.388       .  A
C1699      C1711   1.390       .  A
C1699      C1707   1.379   1_554  A
C1700      C1714   1.396       .  A
C1700      C1708   1.387   1_554  A
C1701      C1709   1.391   1_554  A
C1701      C1712   1.412       .  A
C1702      C1710   1.375       .  A
C1702      C1713   1.393       .  A
C1703      C1704   1.382       .  A
C1703      H1715   1.080       .  S
C1704      H1716   1.077       .  S
C1705      C1706   1.370       .  A
C1705      H1717   1.082       .  S
C1706      H1718   1.073       .  S
C1707      C1708   1.378       .  A
C1707      H1719   1.079       .  S
C1708      H1720   1.079       .  S
C1709      C1710   1.380       .  A
C1709      H1721   1.080       .  S
C1710      H1722   1.078       .  S
C1711      C1788   1.471   1_554  S
C1712      C1799   1.460       .  S
C1713      C1813   1.468       .  S
C1714      C1830   1.454       .  S
C1725      C1757   1.626       .  S
C1725      C1771   1.646       .  S
C1725      C2012   1.655       .  S
C1726      C2051   1.645       .  S
C1727      C1869   1.632       .  S
C1727      C1883   1.639       .  S
C1727      C1914   1.637       .  S
C1728      C1841   1.604       .  S
C1728      C1855   1.644       .  S
C1728      C1928   1.640       .  S
C1729      C1734   1.455       .  A
C1730      C1731   1.437       .  A
C1730      C1735   1.441       .  S
C1731      C1738   1.452       .  S
C1732      C1733   1.413       .  A
C1733      C1734   1.442       .  A
C1733      C1736   1.447       .  S
C1734      C1737   1.449       .  S
C1735      N1742   1.155       .  T
C1736      N1741   1.156       .  T
C1737      N1739   1.156       .  T
C1738      N1740   1.157       .  T
C1743      C1748   1.464   1_545  A
C1744      C1745   1.439       .  A
C1744      C1749   1.450       .  S
C1745      C1752   1.447       .  S
C1746      C1747   1.395   1_545  A
C1747      C1748   1.424       .  A
C1747      C1750   1.446       .  S
C1748      C1751   1.448       .  S
C1749      N1756   1.157       .  T
C1750      N1755   1.153       .  T
C1751      N1753   1.158       .  T
C1752      N1754   1.156       .  T
C1757      C1758   1.448       .  A
C1758      C1759   1.430       .  A
C1758      C1763   1.452       .  S
C1759      C1760   1.412       .  A
C1759      C1766   1.448       .  S
C1761      C1762   1.412       .  A
C1761      C1764   1.449       .  S
C1762      C1765   1.444       .  S
C1763      N1770   1.157       .  T
C1764      N1769   1.157       .  T
C1765      N1767   1.158       .  T
C1766      N1768   1.156       .  T
C1771      C1772   1.455       .  A
C1772      C1773   1.444       .  A
C1772      C1777   1.454       .  S
C1773      C1774   1.419       .  A
C1773      C1780   1.450       .  S
C1775      C1776   1.434       .  A
C1775      C1778   1.457       .  S
C1776      C1779   1.446   1_455  S
C1777      N1784   1.158       .  T
C1778      N1783   1.159       .  T
C1779      N1781   1.156       .  T
C1780      N1782   1.157       .  T
C1785      C1786   1.423       .  A
C1785      C1790   1.422       .  A
C1786      C1787   1.394       .  A
C1786      C1791   1.451       .  S
C1787      C1788   1.404       .  A
C1787      C1794   1.454       .  S
C1788      C1789   1.395   1_556  A
C1789      C1790   1.401   1_554  A
C1789      C1792   1.437       .  S
C1790      C1793   1.449       .  S
C1791      N1798   1.157       .  T
C1792      N1797   1.152       .  T
C1793      N1795   1.157       .  T
C1794      N1796   1.157       .  T
C1799      C1800   1.400       .  A
C1799      C1804   1.400       .  A
C1800      C1801   1.396       .  A
C1800      C1805   1.454       .  S
C1801      C1802   1.421       .  A
C1801      C1808   1.450       .  S
C1802      C1803   1.422       .  A
C1803      C1804   1.398       .  A
C1803      C1806   1.451       .  S
C1804      C1807   1.447       .  S
C1805      N1812   1.157       .  T
C1806      N1811   1.158       .  T
C1807      N1809   1.155       .  T
C1808      N1810   1.156       .  T
C1813      C1814   1.409       .  A
C1813      C1818   1.402   1_556  A
C1814      C1815   1.403       .  A
C1814      C1819   1.451       .  S
C1815      C1816   1.408       .  A
C1815      C1822   1.448       .  S
C1816      C1817   1.408   1_556  A
C1817      C1818   1.399       .  A
C1817      C1820   1.445       .  S
C1818      C1821   1.449       .  S
C1819      N1826   1.157       .  T
C1820      N1825   1.155       .  T
C1821      N1823   1.157       .  T
C1822      N1824   1.156       .  T
C1827      C1828   1.408       .  A
C1827      C1832   1.408   1_554  A
C1828      C1829   1.393       .  A
C1828      C1833   1.448       .  S
C1829      C1830   1.405       .  A
C1829      C1836   1.453       .  S
C1830      C1831   1.402       .  A
C1831      C1832   1.391   1_554  A
C1831      C1834   1.450   1_554  S
C1832      C1835   1.444       .  S
C1833      N1840   1.156       .  T
C1834      N1839   1.157       .  T
C1835      N1837   1.153       .  T
C1836      N1838   1.157       .  T
C1841      C1846   1.457       .  A
C1842      C1843   1.419       .  A
C1842      C1847   1.443       .  S
C1843      C1850   1.448       .  S
C1844      C1845   1.408       .  A
C1845      C1846   1.431       .  A
C1845      C1848   1.449       .  S
C1846      C1849   1.452       .  S
C1847      N1854   1.157       .  T
C1848      N1853   1.158       .  T
C1849      N1851   1.157       .  T
C1850      N1852   1.156       .  T
C1855      C1860   1.461       .  A
C1856      C1857   1.431       .  A
C1856      C1861   1.453       .  S
C1857      C1864   1.450       .  S
C1858      C1859   1.400       .  A
C1859      C1860   1.434       .  A
C1859      C1862   1.459       .  S
C1860      C1863   1.445       .  S
C1861      N1868   1.158       .  T
C1862      N1867   1.158       .  T
C1863      N1865   1.158       .  T
C1864      N1866   1.158       .  T
C1869      C1870   1.436       .  A
C1870      C1871   1.434       .  A
C1870      C1875   1.449       .  S
C1871      C1872   1.430       .  A
C1871      C1878   1.451       .  S
C1873      C1874   1.429       .  A
C1873      C1876   1.443       .  S
C1874      C1877   1.448       .  S
C1875      N1882   1.158       .  T
C1876      N1881   1.154       .  T
C1877      N1879   1.157       .  T
C1878      N1880   1.156       .  T
C1883      C1888   1.452       .  A
C1884      C1885   1.434       .  A
C1884      C1889   1.443       .  S
C1885      C1892   1.449       .  S
C1886      C1887   1.406       .  A
C1887      C1888   1.431       .  A
C1887      C1890   1.451       .  S
C1888      C1891   1.448       .  S
C1889      N1896   1.155       .  T
C1890      N1895   1.157       .  T
C1891      N1893   1.158       .  T
C1892      N1894   1.156       .  T
C1897      C1898   1.430       .  A
C1897      C1902   1.404       .  A
C1898      C1899   1.442       .  A
C1898      C1903   1.453       .  S
C1899      C1900   1.440       .  A
C1899      C1906   1.444       .  S
C1900      C1901   1.445       .  A
C1901      C1902   1.424       .  A
C1901      C1904   1.446       .  S
C1902      C1905   1.445       .  S
C1903      N1910   1.158       .  T
C1904      N1909   1.158       .  T
C1905      N1907   1.158       .  T
C1906      N1908   1.155   1_655  T
C1911      C1912   1.429       .  A
C1911      C1916   1.406       .  A
C1912      C1913   1.440       .  A
C1912      C1917   1.450       .  S
C1913      C1914   1.437       .  A
C1913      C1920   1.446       .  S
C1914      C1915   1.448       .  A
C1915      C1916   1.424       .  A
C1915      C1918   1.444       .  S
C1916      C1919   1.450       .  S
C1917      N1924   1.157       .  T
C1918      N1923   1.156       .  T
C1919      N1921   1.158       .  T
C1920      N1922   1.156       .  T
C1925      C1926   1.412       .  A
C1925      C1930   1.417       .  A
C1926      C1927   1.438       .  A
C1926      C1931   1.452       .  S
C1927      C1928   1.467       .  A
C1927      C1934   1.454       .  S
C1928      C1929   1.417       .  A
C1929      C1930   1.417       .  A
C1929      C1932   1.433       .  S
C1930      C1933   1.447       .  S
C1931      N1938   1.158       .  T
C1933      N1935   1.157       .  T
C1934      N1936   1.158       .  T
C1939      C1940   1.411       .  A
C1939      C1944   1.390       .  A
C1940      C1941   1.438       .  A
C1940      C1945   1.451       .  S
C1941      C1942   1.454       .  A
C1941      C1948   1.454       .  S
C1942      C1943   1.473       .  A
C1943      C1944   1.425       .  A
C1943      C1946   1.449       .  S
C1944      C1947   1.456       .  S
C1945      N1952   1.157       .  T
C1946      N1951   1.157       .  T
C1947      N1949   1.155       .  T
C1948      N1950   1.158       .  T
C1953      C1954   1.417       .  A
C1953      C1958   1.419       .  A
C1954      C1955   1.404       .  A
C1954      C1959   1.442       .  S
C1955      C1956   1.401       .  A
C1955      C1962   1.444       .  S
C1956      C1957   1.405       .  A
C1957      C1958   1.401       .  A
C1957      C1960   1.452       .  S
C1958      C1961   1.452       .  S
C1959      N1966   1.153       .  T
C1960      N1965   1.157       .  T
C1961      N1963   1.157       .  T
C1962      N1964   1.154       .  T
C1967      C1968   1.409       .  A
C1967      C1972   1.413       .  A
C1968      C1969   1.396       .  A
C1968      C1973   1.448       .  S
C1969      C1970   1.405       .  A
C1969      C1976   1.448       .  S
C1970      C1971   1.406       .  A
C1971      C1972   1.403       .  A
C1971      C1974   1.450       .  S
C1972      C1975   1.446       .  S
C1973      N1980   1.157       .  T
C1974      N1979   1.157       .  T
C1975      N1977   1.155       .  T
C1976      N1978   1.156       .  T
C1981      C1982   1.413       .  A
C1981      C1986   1.421       .  A
C1982      C1983   1.400       .  A
C1982      C1987   1.446       .  S
C1983      C1984   1.406       .  A
C1983      C1990   1.447       .  S
C1984      C1985   1.397       .  A
C1985      C1986   1.392       .  A
C1985      C1988   1.442       .  S
C1986      C1989   1.448       .  S
C1987      N1994   1.156       .  T
C1988      N1993   1.155   1_565  T
C1989      N1991   1.155       .  T
C1990      N1992   1.156       .  T
C1995      C1996   1.406       .  A
C1995      C2000   1.397       .  A
C1996      C1997   1.394       .  A
C1996      C2001   1.453       .  S
C1997      C1998   1.414       .  A
C1997      C2004   1.447       .  S
C1998      C1999   1.426       .  A
C1999      C2000   1.396       .  A
C1999      C2002   1.452       .  S
C2000      C2003   1.451       .  S
C2001      N2008   1.157       .  T
C2002      N2007   1.157       .  T
C2003      N2005   1.157   1_655  T
C2004      N2006   1.156       .  T
C2009      C2010   1.421       .  A
C2009      C2014   1.410       .  A
C2010      C2011   1.453       .  A
C2010      C2015   1.449       .  S
C2011      C2012   1.477       .  A
C2011      C2018   1.448       .  S
C2012      C2013   1.432       .  A
C2013      C2014   1.412       .  A
C2013      C2016   1.449       .  S
C2014      C2017   1.446       .  S
C2015      N2022   1.157       .  T
C2016      N2021   1.158       .  T
C2017      N2019   1.158       .  T
C2018      N2020   1.157       .  T
C2023      C2024   1.418       .  A
C2023      C2028   1.398       .  A
C2024      C2025   1.435       .  A
C2024      C2029   1.449       .  S
C2025      C2026   1.436       .  A
C2025      C2032   1.443       .  S
C2026      C2027   1.460       .  A
C2027      C2028   1.431       .  A
C2027      C2030   1.440       .  S
C2028      C2031   1.454       .  S
C2029      N2036   1.155       .  T
C2030      N2035   1.154       .  T
C2031      N2033   1.157       .  T
C2032      N2034   1.157   1_655  T
C2037      C2038   1.435       .  A
C2037      C2042   1.418       .  A
C2038      C2039   1.431       .  A
C2038      C2043   1.450       .  S
C2039      C2040   1.432       .  A
C2039      C2046   1.447       .  S
C2040      C2041   1.450       .  A
C2041      C2042   1.437       .  A
C2041      C2044   1.444       .  S
C2042      C2045   1.451       .  S
C2043      N2050   1.156       .  T
C2044      N2049   1.154       .  T
C2045      N2047   1.158       .  T
C2051      C2052   1.452       .  A
C2051      C2056   1.461       .  A
C2052      C2053   1.431       .  A
C2052      C2057   1.450       .  S
C2053      C2054   1.404       .  A
C2053      C2060   1.442       .  S
C2054      C2055   1.397       .  A
C2055      C2056   1.424       .  A
C2055      C2058   1.454       .  S
C2056      C2059   1.443       .  S
C2057      N2064   1.158       .  T
C2058      N2063   1.157       .  T
C2059      N2061   1.156       .  T
C2060      N2062   1.154       .  T
